9 
acetamide molec-b optimized by B3LYPp2p, SG=m
  C         0.00000000     0.00000000     0.00000000
  O         0.00000000     1.22138970     0.00000000
  C        -1.28794740    -0.81334240     0.00000000
  H        -1.87561040    -0.53941506    -0.88143000
  H        -1.13075711    -1.89647557     0.00000000
  H        -1.87561040    -0.53941506     0.88143000
  N         1.15696500    -0.73091241     0.00000000
  H         1.17021034    -1.73850207     0.00000000
  H         2.03620856    -0.23343726     0.00000000
