26 
adamantane molec optimized by B3LYPp2p, SG=-43m
  C         0.89272600     0.89272600     0.89272600
  C         0.89272600    -0.89272600    -0.89272600
  C        -0.89272600    -0.89272600     0.89272600
  C        -0.89272600     0.89272600    -0.89272600
  C         0.00000000     0.00000000     1.78120300
  C         0.00000000     0.00000000    -1.78120300
  C        -1.78120300     0.00000000     0.00000000
  C         0.00000000     1.78120300     0.00000000
  C         1.78120300     0.00000000     0.00000000
  C         0.00000000    -1.78120300     0.00000000
  H         1.52683900     1.52683900     1.52683900
  H         1.52683900    -1.52683900    -1.52683900
  H        -1.52683900    -1.52683900     1.52683900
  H        -1.52683900     1.52683900    -1.52683900
  H        -0.62411100     0.62411100     2.43613900
  H         0.62411100     0.62411100    -2.43613900
  H         0.62411100    -0.62411100     2.43613900
  H        -0.62411100    -0.62411100    -2.43613900
  H        -2.43613900     0.62411100     0.62411100
  H         0.62411100     2.43613900    -0.62411100
  H         2.43613900    -0.62411100     0.62411100
  H        -0.62411100    -2.43613900    -0.62411100
  H        -0.62411100     2.43613900     0.62411100
  H         2.43613900     0.62411100    -0.62411100
  H         0.62411100    -2.43613900     0.62411100
  H        -2.43613900    -0.62411100    -0.62411100
