16 
anisole molec optimized by CAM-B3LYPp2p, SG=m
  C         0.33580003    -0.44522598     0.00000000
  C         0.04857510     0.91788864     0.00000000
  C        -1.28095626     1.33688239     0.00000000
  C        -2.31905984     0.41778244     0.00000000
  C        -2.02072458    -0.94435891     0.00000000
  C        -0.70579018    -1.37639277     0.00000000
  O         1.59231407    -0.96739231     0.00000000
  C         2.68298375    -0.07424772     0.00000000
  H         0.84160067     1.65555974     0.00000000
  H        -1.49713174     2.40111998     0.00000000
  H        -3.35065302     0.75396450     0.00000000
  H        -2.82233486    -1.67684883     0.00000000
  H        -0.45328497    -2.43124431     0.00000000
  H         3.58121616    -0.69252871     0.00000000
  H         2.68372283     0.56252093    -0.89320400
  H         2.68372283     0.56252093     0.89320400
