27 
annulene18CN molec-a optimized by CAM-B3LYPp2p, SG=1
  C         3.33747489     0.66007790     0.05153304
  N         2.22450434     1.29851415    -0.13623265
  C         2.25723856     2.66617927    -0.11966951
  N         1.20207176     3.40169245    -0.12019814
  C        -0.00000000     2.79256234    -0.32550842
  N        -1.09610120     3.27226979     0.15570629
  C        -2.21877854     2.52914375     0.05599880
  N        -2.22316153     1.23788957     0.17727668
  C        -3.43739388     0.60368246     0.14275709
  N        -3.56092576    -0.67106059     0.06845122
  C        -2.45715550    -1.44877204     0.22577504
  N        -2.27755141    -2.53413848    -0.44950840
  C        -1.07721655    -3.14797130    -0.35003345
  N         0.03590773    -2.50395770    -0.18142264
  C         1.18530412    -3.24497313    -0.09398029
  N         2.35073818    -2.73001121     0.07549567
  C         2.42772775    -1.39379748     0.33315832
  N         3.43152073    -0.68272266    -0.05313465
  H         4.27936731     1.18327354     0.25686920
  H         3.22582113     3.17927937    -0.09991372
  H        -0.02191541     1.91160187    -0.97643399
  H        -3.14487651     3.09928939    -0.08842782
  H        -4.35703457     1.19946178     0.16634478
  H        -1.75040272    -1.16302856     1.01315857
  H        -1.10044354    -4.23683406    -0.48247120
  H         1.12950200    -4.33620604    -0.18535452
  H         1.63577865    -0.94144439     0.93976471
