18
Az molec optimized by CAM-B3LYPp2p, SG=mm2y
C        1.145514916     -1.885336587      0.000000000
C        0.000000000     -2.687229080      0.000000000
C        0.746444652     -0.543697247      0.000000000
C       -1.145514916     -1.885336587      0.000000000
C       -0.746444652     -0.543697247      0.000000000
C        1.588018852      0.559074046      0.000000000
C        1.261531591      1.911862899      0.000000000
C        0.000000000      2.501347455      0.000000000
C       -1.588018852      0.559074046      0.000000000
C       -1.261531591      1.911862899      0.000000000
H        0.000000000     -3.771414351      0.000000000
H       -2.171710644     -2.230686321      0.000000000
H        2.171710644     -2.230686321      0.000000000
H        2.652487076      0.329777916      0.000000000
H        2.102650919      2.599701704      0.000000000
H        0.000000000      3.589222133      0.000000000
H       -2.102650919      2.599701704      0.000000000
H       -2.652487076      0.329777916      0.000000000
