25 
BDT2Ni molec optimized by CAM-B3LYPa3p, SG=mmm
  C        -5.36239000     0.70474400     0.00000000
  C        -5.36239000    -0.70474400     0.00000000
  C        -4.18769300     1.39798400     0.00000000
  C        -4.18769300    -1.39798400     0.00000000
  C        -2.95880200     0.70582200     0.00000000
  C        -2.95880200    -0.70582200     0.00000000
  S        -1.47343100     1.54110100     0.00000000
  S        -1.47343100    -1.54110100     0.00000000
  H        -6.30313400     1.23860900     0.00000000
  H        -6.30313400    -1.23860900     0.00000000
  H        -4.17955000     2.47960500     0.00000000
  H        -4.17955000    -2.47960500     0.00000000
  C         5.36239000    -0.70474400     0.00000000
  C         5.36239000     0.70474400     0.00000000
  C         4.18769300    -1.39798400     0.00000000
  C         4.18769300     1.39798400     0.00000000
  C         2.95880200    -0.70582200     0.00000000
  C         2.95880200     0.70582200     0.00000000
  S         1.47343100    -1.54110100     0.00000000
  S         1.47343100     1.54110100     0.00000000
  H         6.30313400    -1.23860900     0.00000000
  H         6.30313400     1.23860900     0.00000000
  H         4.17955000    -2.47960500     0.00000000
  H         4.17955000     2.47960500     0.00000000
  Ni        0.00000000     0.00000000     0.00000000
