12 
benzeneF6 molec optimized by CAM-B3LYPp2p, SG=6/mmm
  C         1.38727245     0.00000000     0.00000000
  C         0.69363623     1.20141319     0.00000000
  C        -0.69363623     1.20141319     0.00000000
  C        -1.38727245     0.00000000     0.00000000
  C        -0.69363623    -1.20141319     0.00000000
  C         0.69363623    -1.20141319     0.00000000
  F         2.71666522     0.00000000     0.00000000
  F         1.35833261     2.35270110     0.00000000
  F        -1.35833261     2.35270110     0.00000000
  F        -2.71666522     0.00000000     0.00000000
  F        -1.35833261    -2.35270110     0.00000000
  F         1.35833261    -2.35270110     0.00000000
