36 
benzeneN2C2Ph2 molec optimized by CAM-B3LYPp2p, SG=mm2y
  C         1.40507100    -0.55322514     0.00000000
  C         0.70675900     0.67724086     0.00000000
  C        -0.70675900     0.67724086     0.00000000
  C        -1.40507100    -0.55322514     0.00000000
  C        -0.70793500    -1.73198414     0.00000000
  C         0.70793500    -1.73198414     0.00000000
  H         2.48920900    -0.52180914     0.00000000
  N         1.40400400     1.84529486     0.00000000
  N        -1.40400400     1.84529486     0.00000000
  H        -2.48920900    -0.52180914     0.00000000
  H        -1.24034200    -2.67790214     0.00000000
  H         1.24034200    -2.67790214     0.00000000
  C         0.71979000     2.96238486     0.00000000
  C        -0.71979000     2.96238486     0.00000000
  C         1.49348000     4.24085186     0.00000000
  C         1.86931500     4.83688486     1.20227900
  C         2.60834600     6.01370686     1.20258700
  C         2.97816000     6.60513686     0.00000000
  C         2.60834600     6.01370686    -1.20258700
  C         1.86931500     4.83688486    -1.20227900
  H         1.58630300     4.37220586     2.14199400
  H         2.89760300     6.46829786     2.14510600
  H         3.55521900     7.52471186     0.00000000
  H         2.89760300     6.46829786    -2.14510600
  H         1.58630300     4.37220586    -2.14199400
  C        -1.49348000     4.24085186     0.00000000
  C        -1.86931500     4.83688486    -1.20227900
  C        -2.60834600     6.01370686    -1.20258700
  C        -2.97816000     6.60513686     0.00000000
  C        -2.60834600     6.01370686     1.20258700
  C        -1.86931500     4.83688486     1.20227900
  H        -1.58630300     4.37220586    -2.14199400
  H        -2.89760300     6.46829786    -2.14510600
  H        -3.55521900     7.52471186     0.00000000
  H        -2.89760300     6.46829786     2.14510600
  H        -1.58630300     4.37220586     2.14199400
