12 
benzeneF3 molec optimized by CAM-B3LYPa3p, SG=-62m
  C         1.35648796     0.00000000     0.00000000
  C         0.70022305     1.21282191     0.00000000
  C        -0.67824398     1.17475303     0.00000000
  C        -1.40044611     0.00000000     0.00000000
  C        -0.67824398    -1.17475303     0.00000000
  C         0.70022305    -1.21282191     0.00000000
  F         2.69424108     0.00000000     0.00000000
  H         1.23985318     2.14748869     0.00000000
  F        -1.34712054     2.33328122     0.00000000
  H        -2.47970635     0.00000000     0.00000000
  F        -1.34712054    -2.33328122     0.00000000
  H         1.23985318    -2.14748869     0.00000000
