18 
benzodithiophene molec optimized by CAM-B3LYPp2p, SG=2/m
  C         1.31990467     0.46419776     0.00000000
  C         0.28157587     1.39514038     0.00000000
  C        -1.02042265     0.92198786     0.00000000
  C         1.02042265    -0.92198786     0.00000000
  C        -0.28157587    -1.39514038     0.00000000
  C        -1.31990467    -0.46419776     0.00000000
  C         2.74262716     0.70178827     0.00000000
  C         3.46498223    -0.43652777     0.00000000
  S         2.48678773    -1.88091227     0.00000000
  S        -2.48678773     1.88091227     0.00000000
  C        -3.46498223     0.43652777     0.00000000
  C        -2.74262716    -0.70178827     0.00000000
  H         4.54259811    -0.52907070     0.00000000
  H         3.18115719     1.69282723     0.00000000
  H         0.49555942     2.45931289     0.00000000
  H        -0.49555942    -2.45931289     0.00000000
  H        -3.18115719    -1.69282723     0.00000000
  H        -4.54259811     0.52907070     0.00000000
