15 
benzeneN2Mg molec optimized by CAM-B3LYPp2p, SG=mm2y
  C         1.38102600    -0.60459313     0.00000000
  C         0.71744800     0.62262887     0.00000000
  C        -0.71744800     0.62262887     0.00000000
  C        -1.38102600    -0.60459313     0.00000000
  C        -0.69372400    -1.81469113     0.00000000
  C         0.69372400    -1.81469113     0.00000000
  H         2.46937500    -0.60022613     0.00000000
  N         1.39961100     1.84732687     0.00000000
  N        -1.39961100     1.84732687     0.00000000
  H        -2.46937500    -0.60022613     0.00000000
  H        -1.24766100    -2.74865813     0.00000000
  H         1.24766100    -2.74865813     0.00000000
  Mg        0.00000000     3.11507387     0.00000000
  H         2.40274100     1.74067587     0.00000000
  H        -2.40274100     1.74067587     0.00000000
