14 
benzeneN3H molec optimized by CAM-B3LYPp2p, SG=mm2y
  C         1.43914600    -0.58504550     0.00000000
  C         0.70910800     0.62667050     0.00000000
  C        -0.70910800     0.62667050     0.00000000
  C        -1.43914600    -0.58504550     0.00000000
  C        -0.71442000    -1.74425850     0.00000000
  C         0.71442000    -1.74425850     0.00000000
  H         2.52322500    -0.58004350     0.00000000
  N         1.13436000     1.90380150     0.00000000
  N        -1.13436000     1.90380150     0.00000000
  H        -2.52322500    -0.58004350     0.00000000
  H        -1.23076100    -2.69899050     0.00000000
  H         1.23076100    -2.69899050     0.00000000
  N         0.00000000     2.57252650     0.00000000
  H         0.00000000     3.58320550     0.00000000
