12 
benzeneCl6 molec optimized by CAM-B3LYPa3p, SG=6/mmm
  C         1.39168791     0.00000000     0.00000000
  C         0.69584395     1.20523708     0.00000000
  C        -0.69584395     1.20523708     0.00000000
  C        -1.39168791     0.00000000     0.00000000
  C        -0.69584395    -1.20523708     0.00000000
  C         0.69584395    -1.20523708     0.00000000
  Cl        3.10578782     0.00000000     0.00000000
  Cl        1.55289391     2.68969115     0.00000000
  Cl       -1.55289391     2.68969115     0.00000000
  Cl       -3.10578782     0.00000000     0.00000000
  Cl       -1.55289391    -2.68969115     0.00000000
  Cl        1.55289391    -2.68969115     0.00000000
