16 
benzeneN2C2 molec optimized by CAM-B3LYPp2p, SG=mm2y
  C         1.40492632    -1.03778216     0.00000000
  C         0.70916687     0.19461108     0.00000000
  C        -0.70916687     0.19461108     0.00000000
  C        -1.40492632    -1.03778216     0.00000000
  C        -0.70800367    -2.21608591     0.00000000
  C         0.70800367    -2.21608591     0.00000000
  H         2.48905927    -1.00714544     0.00000000
  N         1.41315126     1.36057228     0.00000000
  N        -1.41315126     1.36057228     0.00000000
  H        -2.48905927    -1.00714544     0.00000000
  H        -1.24032773    -3.16200376     0.00000000
  H         1.24032773    -3.16200376     0.00000000
  C         0.70973956     2.46226641     0.00000000
  C        -0.70973956     2.46226641     0.00000000
  H         1.25215873     3.40556752     0.00000000
  H        -1.25215873     3.40556752     0.00000000
