15 
benzofuran molec optimized by CAM-B3LYPp2p, SG=m
  C         2.47709860     0.47090352     0.00000000
  C         1.93553678    -0.76368673     0.00000000
  C         0.50593894    -0.56717544     0.00000000
  H         2.47352739    -1.70039929     0.00000000
  C         0.32459946     0.82013044     0.00000000
  O         1.53059535     1.45587601     0.00000000
  C        -0.62172690    -1.39412214     0.00000000
  H        -0.51841026    -2.47468540     0.00000000
  C        -0.91856186     1.43375095     0.00000000
  H        -1.01260326     2.51372557     0.00000000
  C        -1.87407234    -0.80243620     0.00000000
  H        -2.76122423    -1.42776522     0.00000000
  C        -2.02154903     0.59356469     0.00000000
  H        -3.01806757     1.02342396     0.00000000
  H         3.49891893     0.81889529     0.00000000
