15 
benzothiophene molec optimized by CAM-B3LYPp2p, SG=m
  C         2.66085582     0.43827524     0.00000000
  C         1.92539685    -0.69340168     0.00000000
  C         0.50734642    -0.43723136     0.00000000
  H         2.35347974    -1.68906774     0.00000000
  C         0.22445941     0.94181446     0.00000000
  S         1.69409741     1.88783370     0.00000000
  C        -0.55860535    -1.34797604     0.00000000
  H        -0.35714111    -2.41513152     0.00000000
  C        -1.08684052     1.41838735     0.00000000
  H        -1.29090854     2.48432475     0.00000000
  C        -1.85745414    -0.87817219     0.00000000
  H        -2.68495529    -1.58053563     0.00000000
  C        -2.12077810     0.49963658     0.00000000
  H        -3.14813089     0.84984495     0.00000000
  H         3.73917829     0.52139912     0.00000000
