18 
benzodithiopheneO2 molec optimized by CAM-B3LYPp2p, SG=2/m
  C         1.36282161     0.43881106     0.00000000
  C         0.29240825     1.46538990     0.00000000
  C        -1.06951683     0.90496090     0.00000000
  C         1.06951683    -0.90496090     0.00000000
  C        -0.29240825    -1.46538990     0.00000000
  C        -1.36282161    -0.43881106     0.00000000
  C         2.75794368     0.69932596     0.00000000
  C         3.48411485    -0.45475320     0.00000000
  S         2.49394663    -1.86578683     0.00000000
  S        -2.49394663     1.86578683     0.00000000
  C        -3.48411485     0.45475320     0.00000000
  C        -2.75794368    -0.69932596     0.00000000
  H         4.56087635    -0.55524866     0.00000000
  H         3.17740633     1.69705894     0.00000000
  O         0.52256982     2.66072742     0.00000000
  O        -0.52256982    -2.66072742     0.00000000
  H        -3.17740633    -1.69705894     0.00000000
  H        -4.56087635     0.55524866     0.00000000
