17 
benzeneN2SN2C2 molec optimized by CAM-B3LYPp2p, SG=mm2y
  H        -2.52149355     0.69208737     0.00000000
  C         1.43876150     0.71106222     0.00000000
  C         0.72351556     1.92176823     0.00000000
  C         0.72431335    -0.46875313     0.00000000
  C        -0.72431335    -0.46875313     0.00000000
  C        -1.43876150     0.71106222     0.00000000
  N         1.42365053    -1.66227345     0.00000000
  N        -1.42365053    -1.66227345     0.00000000
  C        -0.72351556     1.92176823     0.00000000
  C         0.72171559    -2.74643812     0.00000000
  C        -0.72171559    -2.74643812     0.00000000
  H         1.25398838    -3.69618312     0.00000000
  H        -1.25398838    -3.69618312     0.00000000
  S         0.00000000     4.18325750     0.00000000
  N        -1.24907402     3.15710126     0.00000000
  N         1.24907402     3.15710126     0.00000000
  H         2.52149355     0.69208737     0.00000000
