12 
benzeneI2 molec optimized by CAM-B3LYPp2p, SG=mmm
  C         1.38870000     0.00000000     0.00000000
  C         0.69490400     1.20458300     0.00000000
  C        -0.69490400     1.20458300     0.00000000
  C        -1.38870000     0.00000000     0.00000000
  C        -0.69490400    -1.20458300     0.00000000
  C         0.69490400    -1.20458300     0.00000000
  I         3.49338600     0.00000000     0.00000000
  H         1.23161800     2.14619300     0.00000000
  H        -1.23161800     2.14619300     0.00000000
  I        -3.49338600     0.00000000     0.00000000
  H        -1.23161800    -2.14619300     0.00000000
  H         1.23161800    -2.14619300     0.00000000
