17 
benzeneN2ON2C2 molec optimized by CAM-B3LYPp2p, SG=mm2y
  H        -2.53316015     0.70075005     0.00000000
  C         1.45077865     0.72307396     0.00000000
  C         0.71529264     1.92793961     0.00000000
  C         0.72893568    -0.44574369     0.00000000
  C        -0.72893568    -0.44574369     0.00000000
  C        -1.45077865     0.72307396     0.00000000
  N         1.42609970    -1.64502846     0.00000000
  N        -1.42609970    -1.64502846     0.00000000
  C        -0.71529264     1.92793961     0.00000000
  C         0.72436798    -2.72574100     0.00000000
  C        -0.72436798    -2.72574100     0.00000000
  H         1.25459660    -3.67662188     0.00000000
  H        -1.25459660    -3.67662188     0.00000000
  O         0.00000000     3.91669397     0.00000000
  N        -1.13076835     3.18302443     0.00000000
  N         1.13076835     3.18302443     0.00000000
  H         2.53316015     0.70075005     0.00000000
