22 
biphenylF molec optimized by CAM-B3LYPp2p, SG=2
  C        -3.56025253    -0.00079734    -0.01790727
  C        -2.85869623     1.12304424    -0.44041727
  C        -1.47075701     1.12361897    -0.42639327
  C        -0.74142091     0.00850031     0.00208273
  C        -1.48368948    -1.09595523     0.41871573
  C        -2.86661674    -1.12197701     0.41682973
  H        -3.39253702     2.00306118    -0.78346027
  H        -0.93084642     2.00345535    -0.75443727
  F        -0.83967534    -2.19763944     0.85123273
  H        -3.37305438    -2.01724847     0.75943673
  C         0.74142091    -0.00850031     0.00208273
  C         1.48368948     1.09595523     0.41871573
  C         2.86661674     1.12197701     0.41682973
  C         3.56025253     0.00079734    -0.01790727
  C         2.85869623    -1.12304424    -0.44041727
  C         1.47075701    -1.12361897    -0.42639327
  F         0.83967534     2.19763944     0.85123273
  H         3.37305438     2.01724847     0.75943673
  H         3.39253702    -2.00306118    -0.78346027
  H         0.93084642    -2.00345535    -0.75443727
  H        -4.64538600    -0.00751651    -0.02568227
  H         4.64538600     0.00751651    -0.02568227
