20 
bipyridine molec optimized by CAM-B3LYPp2p, SG=2/m
  N         1.32306983     1.22149562     0.00000000
  C         0.74455433     0.01574751     0.00000000
  C         1.48085285    -1.16966654     0.00000000
  C         2.86474835    -1.09296879     0.00000000
  C         3.47040782     0.15743301     0.00000000
  C         2.65156393     1.28030744     0.00000000
  H         0.95398612    -2.11522781     0.00000000
  H         3.46407239    -1.99842594     0.00000000
  H         4.54973026     0.26515521     0.00000000
  H         3.08514144     2.27813456     0.00000000
  N        -1.32306983    -1.22149562     0.00000000
  C        -0.74455433    -0.01574751     0.00000000
  C        -1.48085285     1.16966654     0.00000000
  C        -2.86474835     1.09296879     0.00000000
  C        -3.47040782    -0.15743301     0.00000000
  C        -2.65156393    -1.28030744     0.00000000
  H        -0.95398612     2.11522781     0.00000000
  H        -3.46407239     1.99842594     0.00000000
  H        -4.54973026    -0.26515521     0.00000000
  H        -3.08514144    -2.27813456     0.00000000
