22 
BTASi2 molec optimized by CAM-B3LYPp2p, SG=mmm
  H        -4.61225500     0.00000000    -1.18598700
  H        -4.61225500     0.00000000     1.18598700
  Si       -3.70830700     0.00000000     0.00000000
  N        -2.49713800    -1.24178100     0.00000000
  N        -2.49713800     1.24178100     0.00000000
  H        -2.60024000    -2.24347100     0.00000000
  H        -2.60024000     2.24347100     0.00000000
  C        -1.19608400    -0.70095900     0.00000000
  C        -1.19608400     0.70095900     0.00000000
  C         0.00000000    -1.40949600     0.00000000
  C         0.00000000     1.40949600     0.00000000
  H         0.00000000    -2.49622900     0.00000000
  H         0.00000000     2.49622900     0.00000000
  C         1.19608400    -0.70095900     0.00000000
  C         1.19608400     0.70095900     0.00000000
  N         2.49713800    -1.24178100     0.00000000
  N         2.49713800     1.24178100     0.00000000
  H         2.60024000    -2.24347100     0.00000000
  H         2.60024000     2.24347100     0.00000000
  Si        3.70830700     0.00000000     0.00000000
  H         4.61225500     0.00000000    -1.18598700
  H         4.61225500     0.00000000     1.18598700
