18 
BTAZn2 molec optimized by CAM-B3LYPp2pxa3p, SG=mmm
  Zn       -3.94347300     0.00000000     0.00000000
  N        -2.41161400    -1.31581500     0.00000000
  N        -2.41161400     1.31581500     0.00000000
  H        -2.40870500    -2.32974100     0.00000000
  H        -2.40870500     2.32974100     0.00000000
  C        -1.22095100    -0.75916400     0.00000000
  C        -1.22095100     0.75916400     0.00000000
  C         0.00000000    -1.43705800     0.00000000
  C         0.00000000     1.43705800     0.00000000
  H         0.00000000    -2.52285700     0.00000000
  H         0.00000000     2.52285700     0.00000000
  C         1.22095100    -0.75916400     0.00000000
  C         1.22095100     0.75916400     0.00000000
  N         2.41161400    -1.31581500     0.00000000
  N         2.41161400     1.31581500     0.00000000
  H         2.40870500    -2.32974100     0.00000000
  H         2.40870500     2.32974100     0.00000000
  Zn        3.94347300     0.00000000     0.00000000
