84 
BTBT-C10 molec optimized by CAM-B3LYPp2p, SG=-1
  S         0.73806377     1.97148881    -0.00098910
  C         0.33601555    -0.59461730     0.00081215
  C         1.76606694    -0.46350182     0.00278107
  C         2.77454914    -1.43343808     0.00008433
  C         4.09812115    -1.03879560    -0.00169178
  C         4.46557402     0.31829315    -0.00073860
  C         3.46952180     1.28613185     0.00006629
  C         2.13289247     0.89733636     0.00249097
  C         5.92185322     0.71150102     0.04158038
  C         6.50307010     0.69745301     1.46161088
  C         7.97860280     1.08755476     1.50634773
  C         8.56342702     1.07698592     2.91732780
  C        10.03917214     1.46792768     2.96515168
  C        10.62426516     1.45790633     4.37597734
  C        12.09979227     1.84946884     4.42447763
  C        12.68511848     1.83988583     5.83504821
  C        14.16064939     2.23173035     5.88425547
  C        14.73548034     2.21908132     7.29784420
  H         2.51495038    -2.48780624    -0.00537182
  H         4.87977671    -1.79351271    -0.00857317
  H         3.73566276     2.33946505    -0.00403681
  H         6.04563088     1.71311710    -0.38678297
  H         6.50514443     0.02997084    -0.58978089
  H         5.92015180     1.37954646     2.09361335
  H         6.37237772    -0.30278273     1.89434746
  H         8.10383169     2.08750331     1.06859768
  H         8.55525684     0.40348623     0.86855012
  H         7.98576550     1.76041608     3.55452875
  H         8.43818679     0.07697232     3.35456153
  H        10.16409019     2.46792817     2.52752054
  H        10.61673933     0.78433901     2.32776099
  H        10.04629877     2.14114843     5.01331199
  H        10.49953053     0.45785401     4.81349594
  H        12.22440982     2.84951565     3.98676321
  H        12.67778667     1.16611550     3.78716014
  H        12.10776171     2.52322328     6.47310831
  H        12.56142337     0.83993245     6.27347667
  H        14.28372359     3.23093379     5.44666771
  H        14.73719975     1.54850283     5.24720287
  H        14.19845211     2.91812762     7.94832339
  H        15.79235922     2.50313952     7.30452028
  H        14.65524770     1.22326878     7.74741453
  S        -0.73806377    -1.97148881     0.00098910
  C        -0.33601555     0.59461730    -0.00081215
  C        -1.76606694     0.46350182    -0.00278107
  C        -2.77454914     1.43343808    -0.00008433
  C        -4.09812115     1.03879560     0.00169178
  C        -4.46557402    -0.31829315     0.00073860
  C        -3.46952180    -1.28613185    -0.00006629
  C        -2.13289247    -0.89733636    -0.00249097
  C        -5.92185322    -0.71150102    -0.04158038
  C        -6.50307010    -0.69745301    -1.46161088
  C        -7.97860280    -1.08755476    -1.50634773
  C        -8.56342702    -1.07698592    -2.91732780
  C       -10.03917214    -1.46792768    -2.96515168
  C       -10.62426516    -1.45790633    -4.37597734
  C       -12.09979227    -1.84946884    -4.42447763
  C       -12.68511848    -1.83988583    -5.83504821
  C       -14.16064939    -2.23173035    -5.88425547
  C       -14.73548034    -2.21908132    -7.29784420
  H        -2.51495038     2.48780624     0.00537182
  H        -4.87977671     1.79351271     0.00857317
  H        -3.73566276    -2.33946505     0.00403681
  H        -6.04563088    -1.71311710     0.38678297
  H        -6.50514443    -0.02997084     0.58978089
  H        -5.92015180    -1.37954646    -2.09361335
  H        -6.37237772     0.30278273    -1.89434746
  H        -8.10383169    -2.08750331    -1.06859768
  H        -8.55525684    -0.40348623    -0.86855012
  H        -7.98576550    -1.76041608    -3.55452875
  H        -8.43818679    -0.07697232    -3.35456153
  H       -10.16409019    -2.46792817    -2.52752054
  H       -10.61673933    -0.78433901    -2.32776099
  H       -10.04629877    -2.14114843    -5.01331199
  H       -10.49953053    -0.45785401    -4.81349594
  H       -12.22440982    -2.84951565    -3.98676321
  H       -12.67778667    -1.16611550    -3.78716014
  H       -12.10776171    -2.52322328    -6.47310831
  H       -12.56142337    -0.83993245    -6.27347667
  H       -14.28372359    -3.23093379    -5.44666771
  H       -14.73719975    -1.54850283    -5.24720287
  H       -14.19845211    -2.91812762    -7.94832339
  H       -15.79235922    -2.50313952    -7.30452028
  H       -14.65524770    -1.22326878    -7.74741453
