48 
BTBT-TMS molec optimized by CAM-B3LYPp2p, SG=2/m
  S         0.73696416     1.97184462     0.00000000
  C         2.13178993     0.89667352     0.00000000
  C         3.46947768     1.28448354     0.00000000
  C         4.47560932     0.32041730     0.00000000
  C         4.09524764    -1.03945600     0.00000000
  C         2.77241210    -1.43558914     0.00000000
  C         1.76498768    -0.46369605     0.00000000
  C         0.33578006    -0.59549627     0.00000000
  H         3.71926246     2.34155646     0.00000000
  Si        6.30191510     0.79535486     0.00000000
  H         4.86394593    -1.80840238     0.00000000
  H         2.51075947    -2.48962706     0.00000000
  C         7.12591405     0.08475115    -1.53787300
  H         8.19631552     0.31718141    -1.55421300
  H         6.68156121     0.49390258    -2.45088200
  H         7.02491151    -1.00469631    -1.58270000
  C         6.46836985     2.67043599     0.00000000
  H         6.00842818     3.12232394     0.88499300
  H         6.00842818     3.12232394    -0.88499300
  H         7.52549198     2.95688178     0.00000000
  C         7.12591405     0.08475115     1.53787300
  H         7.02491151    -1.00469631     1.58270000
  H         6.68156121     0.49390258     2.45088200
  H         8.19631552     0.31718141     1.55421300
  S        -0.73696416    -1.97184462     0.00000000
  C        -2.13178993    -0.89667352     0.00000000
  C        -3.46947768    -1.28448354     0.00000000
  C        -4.47560932    -0.32041730     0.00000000
  C        -4.09524764     1.03945600     0.00000000
  C        -2.77241210     1.43558914     0.00000000
  C        -1.76498768     0.46369605     0.00000000
  C        -0.33578006     0.59549627     0.00000000
  H        -3.71926246    -2.34155646     0.00000000
  Si       -6.30191510    -0.79535486     0.00000000
  H        -4.86394593     1.80840238     0.00000000
  H        -2.51075947     2.48962706     0.00000000
  C        -7.12591405    -0.08475115     1.53787300
  H        -8.19631552    -0.31718141     1.55421300
  H        -6.68156121    -0.49390258     2.45088200
  H        -7.02491151     1.00469631     1.58270000
  C        -6.46836985    -2.67043599     0.00000000
  H        -6.00842818    -3.12232394    -0.88499300
  H        -6.00842818    -3.12232394     0.88499300
  H        -7.52549198    -2.95688178     0.00000000
  C        -7.12591405    -0.08475115    -1.53787300
  H        -7.02491151     1.00469631    -1.58270000
  H        -6.68156121    -0.49390258    -2.45088200
  H        -8.19631552    -0.31718141    -1.55421300
