96 
BTBT-C12a molec optimized by CAM-B3LYPp2p, SG=2/m
  S         0.73649900     1.97049558     0.00000000
  C         2.13432601     0.89614033     0.00000000
  C         3.47187601     1.31177743     0.00000000
  C         4.43377559     0.31016706     0.00000000
  C         4.08722505    -1.04745204     0.00000000
  C         2.76506025    -1.44418745     0.00000000
  C         1.76664473    -0.46377992     0.00000000
  C         0.33616476    -0.59402869     0.00000000
  C         3.79646640     2.78786370     0.00000000
  C         5.27709392     3.15834116     0.00000000
  C         5.49868986     4.66975916     0.00000000
  C         6.97462359     5.06232896     0.00000000
  C         7.19976306     6.57298629     0.00000000
  C         8.67556638     6.96648136     0.00000000
  C         8.90140153     8.47704861     0.00000000
  C        10.37720679     8.87056269     0.00000000
  C        10.60341656    10.38108247     0.00000000
  C        12.07901123    10.77481487     0.00000000
  C        12.30587076    12.28533468     0.00000000
  C        13.78321457    12.66781028     0.00000000
  H         5.48359424     0.58079425     0.00000000
  H         4.87412000    -1.79501583     0.00000000
  H         2.49820558    -2.49645149     0.00000000
  H         3.31424105     3.24944457     0.87330300
  H         3.31424105     3.24944457    -0.87330300
  H         5.76813962     2.72152515    -0.87881900
  H         5.76813962     2.72152515     0.87881900
  H         5.00565325     5.10975142    -0.87749900
  H         5.00565325     5.10975142     0.87749900
  H         7.46747232     4.62182798    -0.87752300
  H         7.46747232     4.62182798     0.87752300
  H         6.70658861     7.01342460    -0.87739100
  H         6.70658861     7.01342460     0.87739100
  H         9.16864808     6.52580172     0.87738300
  H         9.16864808     6.52580172    -0.87738300
  H         8.40826782     8.91772380     0.87735400
  H         8.40826782     8.91772380    -0.87735400
  H        10.87029172     8.42979002    -0.87734800
  H        10.87029172     8.42979002     0.87734800
  H        10.11030285    10.82184849    -0.87736800
  H        10.11030285    10.82184849     0.87736800
  H        12.57295343    10.33472399    -0.87737900
  H        12.57295343    10.33472399     0.87737900
  H        11.81279049    12.72457087    -0.87691400
  H        11.81279049    12.72457087     0.87691400
  H        14.29391772    12.26907640     0.88340400
  H        13.91722363    13.75398515     0.00000000
  H        14.29391772    12.26907640    -0.88340400
  S        -0.73649900    -1.97049558     0.00000000
  C        -2.13432601    -0.89614033     0.00000000
  C        -3.47187601    -1.31177743     0.00000000
  C        -4.43377559    -0.31016706     0.00000000
  C        -4.08722505     1.04745204     0.00000000
  C        -2.76506025     1.44418745     0.00000000
  C        -1.76664473     0.46377992     0.00000000
  C        -0.33616476     0.59402869     0.00000000
  C        -3.79646640    -2.78786370     0.00000000
  C        -5.27709392    -3.15834116     0.00000000
  C        -5.49868986    -4.66975916     0.00000000
  C        -6.97462359    -5.06232896     0.00000000
  C        -7.19976306    -6.57298629     0.00000000
  C        -8.67556638    -6.96648136     0.00000000
  C        -8.90140153    -8.47704861     0.00000000
  C       -10.37720679    -8.87056269     0.00000000
  C       -10.60341656   -10.38108247     0.00000000
  C       -12.07901123   -10.77481487     0.00000000
  C       -12.30587076   -12.28533468     0.00000000
  C       -13.78321457   -12.66781028     0.00000000
  H        -5.48359424    -0.58079425     0.00000000
  H        -4.87412000     1.79501583     0.00000000
  H        -2.49820558     2.49645149     0.00000000
  H        -3.31424105    -3.24944457    -0.87330300
  H        -3.31424105    -3.24944457     0.87330300
  H        -5.76813962    -2.72152515     0.87881900
  H        -5.76813962    -2.72152515    -0.87881900
  H        -5.00565325    -5.10975142     0.87749900
  H        -5.00565325    -5.10975142    -0.87749900
  H        -7.46747232    -4.62182798     0.87752300
  H        -7.46747232    -4.62182798    -0.87752300
  H        -6.70658861    -7.01342460     0.87739100
  H        -6.70658861    -7.01342460    -0.87739100
  H        -9.16864808    -6.52580172    -0.87738300
  H        -9.16864808    -6.52580172     0.87738300
  H        -8.40826782    -8.91772380    -0.87735400
  H        -8.40826782    -8.91772380     0.87735400
  H       -10.87029172    -8.42979002     0.87734800
  H       -10.87029172    -8.42979002    -0.87734800
  H       -10.11030285   -10.82184849     0.87736800
  H       -10.11030285   -10.82184849    -0.87736800
  H       -12.57295343   -10.33472399     0.87737900
  H       -12.57295343   -10.33472399    -0.87737900
  H       -11.81279049   -12.72457087     0.87691400
  H       -11.81279049   -12.72457087    -0.87691400
  H       -14.29391772   -12.26907640    -0.88340400
  H       -13.91722363   -13.75398515     0.00000000
  H       -14.29391772   -12.26907640     0.88340400
