24 
BTBT-Br molec optimized by CAM-B3LYPp2p, SG=2/m
  S         0.71418439     1.98096731     0.00000000
  C         2.11827400     0.92277939     0.00000000
  C         3.44846583     1.33281280     0.00000000
  C         4.42499918     0.35408956     0.00000000
  C         4.10810376    -1.00804625     0.00000000
  C         2.78529774    -1.40630512     0.00000000
  C         1.76952623    -0.44421227     0.00000000
  C         0.34184180    -0.59151646     0.00000000
  H         3.71882995     2.38213444     0.00000000
  Br        6.24919705     0.87153353     0.00000000
  H         4.90496469    -1.74186591     0.00000000
  H         2.53664125    -2.46287900     0.00000000
  S        -0.71418439    -1.98096731     0.00000000
  C        -2.11827400    -0.92277939     0.00000000
  C        -3.44846583    -1.33281280     0.00000000
  C        -4.42499918    -0.35408956     0.00000000
  C        -4.10810376     1.00804625     0.00000000
  C        -2.78529774     1.40630512     0.00000000
  C        -1.76952623     0.44421227     0.00000000
  C        -0.34184180     0.59151646     0.00000000
  H        -3.71882995    -2.38213444     0.00000000
  Br       -6.24919705    -0.87153353     0.00000000
  H        -4.90496469     1.74186591     0.00000000
  H        -2.53664125     2.46287900     0.00000000
