48 
BTBT-tBu molec optimized by CAM-B3LYPp2p, SG=2/m
  S         0.74432148     1.96873063     0.00000000
  C         2.13560888     0.88942822     0.00000000
  C         3.47325057     1.28136236     0.00000000
  C         4.47708198     0.32112547     0.00000000
  C         4.09747036    -1.03717724     0.00000000
  C         2.77619705    -1.43361437     0.00000000
  C         1.76408793    -0.46710785     0.00000000
  C         0.33428925    -0.59594691     0.00000000
  H         3.71496837     2.33720970     0.00000000
  C         5.96579684     0.68700050     0.00000000
  H         4.86621887    -1.80284094     0.00000000
  H         2.52128852    -2.48917546     0.00000000
  C         6.19300938     2.20307831     0.00000000
  H         5.76413010     2.67920283     0.88748500
  H         5.76413010     2.67920283    -0.88748500
  H         7.26697888     2.41322686     0.00000000
  C         6.63650143     0.10226397     1.25611300
  H         6.18268350     0.50736247     2.16605900
  H         7.70324041     0.35114085     1.26752400
  H         6.54892342    -0.98714343     1.29574000
  C         6.63650143     0.10226397    -1.25611300
  H         7.70324041     0.35114085    -1.26752400
  H         6.18268350     0.50736247    -2.16605900
  H         6.54892342    -0.98714343    -1.29574000
  S        -0.74432148    -1.96873063     0.00000000
  C        -2.13560888    -0.88942822     0.00000000
  C        -3.47325057    -1.28136236     0.00000000
  C        -4.47708198    -0.32112547     0.00000000
  C        -4.09747036     1.03717724     0.00000000
  C        -2.77619705     1.43361437     0.00000000
  C        -1.76408793     0.46710785     0.00000000
  C        -0.33428925     0.59594691     0.00000000
  H        -3.71496837    -2.33720970     0.00000000
  C        -5.96579684    -0.68700050     0.00000000
  H        -4.86621887     1.80284094     0.00000000
  H        -2.52128852     2.48917546     0.00000000
  C        -6.19300938    -2.20307831     0.00000000
  H        -5.76413010    -2.67920283    -0.88748500
  H        -5.76413010    -2.67920283     0.88748500
  H        -7.26697888    -2.41322686     0.00000000
  C        -6.63650143    -0.10226397    -1.25611300
  H        -6.18268350    -0.50736247    -2.16605900
  H        -7.70324041    -0.35114085    -1.26752400
  H        -6.54892342     0.98714343    -1.29574000
  C        -6.63650143    -0.10226397     1.25611300
  H        -7.70324041    -0.35114085     1.26752400
  H        -6.18268350    -0.50736247     2.16605900
  H        -6.54892342     0.98714343     1.29574000
