63 
BTTTB-C6 molec optimized by CAM-B3LYPp2p, SG=mm2y
  S         0.00000000     1.68429442     0.00000000
  C         1.23394900     0.45345942     0.00000000
  C         0.70983200    -0.81858558     0.00000000
  S         1.94390800    -2.05192858     0.00000000
  C         3.19631700    -0.81223158     0.00000000
  C         2.66918700     0.49246242     0.00000000
  C         3.55918500     1.57386642     0.00000000
  C         4.91755600     1.33535242     0.00000000
  C         5.44714400     0.03054442     0.00000000
  C         4.57063400    -1.04508658     0.00000000
  C        -1.23394900     0.45345942     0.00000000
  C        -0.70983200    -0.81858558     0.00000000
  S        -1.94390800    -2.05192858     0.00000000
  C        -3.19631700    -0.81223158     0.00000000
  C        -2.66918700     0.49246242     0.00000000
  C        -3.55918500     1.57386642     0.00000000
  C        -4.91755600     1.33535242     0.00000000
  C        -5.44714400     0.03054442     0.00000000
  C        -4.57063400    -1.04508658     0.00000000
  H         3.18001900     2.59142242     0.00000000
  H         5.60502500     2.17703842     0.00000000
  H         4.94413500    -2.06287858     0.00000000
  H        -3.18001900     2.59142242     0.00000000
  H        -5.60502500     2.17703842     0.00000000
  H        -4.94413500    -2.06287858     0.00000000
  C         6.95241100    -0.13999758     0.00000000
  H         7.36094300     0.38675042    -0.87299400
  H         7.36094300     0.38675042     0.87299400
  C         7.47764900    -1.57278758     0.00000000
  H         7.09510800    -2.10775358     0.87884400
  H         7.09510800    -2.10775358    -0.87884400
  C         9.00393100    -1.63609558     0.00000000
  H         9.39015700    -1.09987658    -0.87760000
  H         9.39015700    -1.09987658     0.87760000
  C         9.54864000    -3.06275058     0.00000000
  H         9.16268900    -3.59958058     0.87751700
  H         9.16268900    -3.59958058    -0.87751700
  C        11.07463500    -3.12977958     0.00000000
  H        11.45973600    -2.59359458    -0.87701700
  H        11.45973600    -2.59359458     0.87701700
  C        11.60895900    -4.55916758     0.00000000
  H        11.26590700    -5.10862758     0.88345500
  H        11.26590700    -5.10862758    -0.88345500
  H        12.70310500    -4.57862858     0.00000000
  C        -6.95241100    -0.13999758     0.00000000
  H        -7.36094300     0.38675042    -0.87299400
  H        -7.36094300     0.38675042     0.87299400
  C        -7.47764900    -1.57278758     0.00000000
  H        -7.09510800    -2.10775358     0.87884400
  H        -7.09510800    -2.10775358    -0.87884400
  C        -9.00393100    -1.63609558     0.00000000
  H        -9.39015700    -1.09987658    -0.87760000
  H        -9.39015700    -1.09987658     0.87760000
  C        -9.54864000    -3.06275058     0.00000000
  H        -9.16268900    -3.59958058     0.87751700
  H        -9.16268900    -3.59958058    -0.87751700
  C       -11.07463500    -3.12977958     0.00000000
  H       -11.45973600    -2.59359458    -0.87701700
  H       -11.45973600    -2.59359458     0.87701700
  C       -11.60895900    -4.55916758     0.00000000
  H       -11.26590700    -5.10862758     0.88345500
  H       -11.26590700    -5.10862758    -0.88345500
  H       -12.70310500    -4.57862858     0.00000000
