33 
BTTTTTB molec optimized by CAM-B3LYPp2p, SG=mm2y
  S         0.00000000     2.18363442     0.00000000
  C         1.23190000     0.94922042     0.00000000
  C         0.70995000    -0.33344658     0.00000000
  S         1.94581100    -1.56045958     0.00000000
  C         3.17554000    -0.32273558     0.00000000
  C         2.65135300     0.94878542     0.00000000
  S         3.88283000     2.18373242     0.00000000
  C         5.13665100     0.94529342     0.00000000
  C         4.61078200    -0.36391258     0.00000000
  C         5.48985600    -1.45277158     0.00000000
  C         6.85377900    -1.22514658     0.00000000
  C         7.36208000     0.07937442     0.00000000
  C         6.50981800     1.17178042     0.00000000
  C        -1.23190000     0.94922042     0.00000000
  C        -0.70995000    -0.33344658     0.00000000
  S        -1.94581100    -1.56045958     0.00000000
  C        -3.17554000    -0.32273558     0.00000000
  C        -2.65135300     0.94878542     0.00000000
  S        -3.88283000     2.18373242     0.00000000
  C        -5.13665100     0.94529342     0.00000000
  C        -4.61078200    -0.36391258     0.00000000
  C        -5.48985600    -1.45277158     0.00000000
  C        -6.85377900    -1.22514658     0.00000000
  C        -7.36208000     0.07937442     0.00000000
  C        -6.50981800     1.17178042     0.00000000
  H        -5.09969100    -2.46603258     0.00000000
  H        -7.53833700    -2.06710758     0.00000000
  H        -8.43541000     0.23886342     0.00000000
  H        -6.90439900     2.18274542     0.00000000
  H         5.09969100    -2.46603258     0.00000000
  H         7.53833700    -2.06710758     0.00000000
  H         8.43541000     0.23886342     0.00000000
  H         6.90439900     2.18274542     0.00000000
