10 
butadiene molec optimized by CAM-B3LYPp2p, SG=2/m
  C        -1.84199524     0.07560453     0.00000000
  H        -2.02996660     1.14616323     0.00000000
  C        -0.60188139    -0.41265923     0.00000000
  H        -0.44653387    -1.49064445     0.00000000
  C         0.60188139     0.41265923     0.00000000
  H         0.44653387     1.49064445     0.00000000
  C         1.84199524    -0.07560453     0.00000000
  H         2.02996660    -1.14616323     0.00000000
  H        -2.71210679    -0.57222714     0.00000000
  H         2.71210679     0.57222714     0.00000000
