33 
C18H6N4S5 molec optimized by CAM-B3LYPp2p, SG=mm2y
  S         4.37319900     1.56411482     0.00000000
  S         5.00849300    -2.59638518     0.00000000
  N         1.25094500     3.62432982     0.00000000
  N         1.59777300    -1.08475818     0.00000000
  C         2.80530500     0.80773182     0.00000000
  C         2.87757900    -0.57567418     0.00000000
  C         4.21232400    -1.05969518     0.00000000
  C         5.12581100    -0.01947418     0.00000000
  C         6.48072700    -0.45881518     0.00000000
  C         6.56515400    -1.81512218     0.00000000
  S         0.00000000     4.68970582     0.00000000
  C         0.72456900     2.41498182     0.00000000
  C         1.43451100     1.17040382     0.00000000
  C         0.71240300    -0.02904718     0.00000000
  C        -0.71240300    -0.02904718     0.00000000
  C        -1.43451100     1.17040382     0.00000000
  C        -0.72456900     2.41498182     0.00000000
  S        -4.37319900     1.56411482     0.00000000
  S        -5.00849300    -2.59638518     0.00000000
  N        -1.25094500     3.62432982     0.00000000
  N        -1.59777300    -1.08475818     0.00000000
  C        -2.80530500     0.80773182     0.00000000
  C        -2.87757900    -0.57567418     0.00000000
  C        -4.21232400    -1.05969518     0.00000000
  C        -5.12581100    -0.01947418     0.00000000
  C        -6.48072700    -0.45881518     0.00000000
  C        -6.56515400    -1.81512218     0.00000000
  H        -7.46029500    -2.42081518     0.00000000
  H         7.46029500    -2.42081518     0.00000000
  H        -7.34317100     0.19599582     0.00000000
  H         7.34317100     0.19599582     0.00000000
  H        -1.35956000    -2.06262418     0.00000000
  H         1.35956000    -2.06262418     0.00000000
