10 
C5H5- molec optimized by CAM-B3LYPp2p, SG=-102m
  C         1.19803525    -0.00000000     0.00000000
  C         0.37021325     1.13939923     0.00000000
  C        -0.96923088     0.70418745     0.00000000
  C        -0.96923088    -0.70418745     0.00000000
  C         0.37021325    -1.13939923     0.00000000
  H         2.28717721     0.00000000     0.00000000
  H         0.70677663     2.17523479     0.00000000
  H        -1.85036523     1.34436903     0.00000000
  H        -1.85036523    -1.34436903     0.00000000
  H         0.70677663    -2.17523479     0.00000000
