60 
C60 molec optimized by CAM-B3LYPp2p, SG=m-5
  C         3.46642385     0.69271684     0.00000000
  C         3.46642385    -0.69271684     0.00000000
  C         2.59033453     0.72482546    -2.29363163
  C         1.17279223     3.01845708    -1.41754230
  C         1.17279223     3.01845708     1.41754230
  C         2.59033453     0.72482546     2.29363163
  C         3.01845708     1.41754230    -1.17279223
  C         3.01845708    -1.41754230     1.17279223
  C         2.59033453    -0.72482546    -2.29363163
  C         0.72482546     2.29363163    -2.59033453
  C         0.00000000     3.46642385     0.69271684
  C         1.41754230     1.17279223     3.01845708
  C         2.29363163     2.59033453    -0.72482546
  C         2.29363163    -2.59033453     0.72482546
  C         1.41754230    -1.17279223    -3.01845708
  C        -0.72482546     2.29363163    -2.59033453
  C        -1.17279223     3.01845708     1.41754230
  C         0.69271684     0.00000000     3.46642385
  C         2.29363163     2.59033453     0.72482546
  C         2.29363163    -2.59033453    -0.72482546
  C         0.69271684     0.00000000    -3.46642385
  C        -1.17279223     3.01845708    -1.41754230
  C        -0.72482546     2.29363163     2.59033453
  C         1.41754230    -1.17279223     3.01845708
  C         3.01845708     1.41754230     1.17279223
  C         3.01845708    -1.41754230    -1.17279223
  C         1.41754230     1.17279223    -3.01845708
  C         0.00000000     3.46642385    -0.69271684
  C         0.72482546     2.29363163     2.59033453
  C         2.59033453    -0.72482546     2.29363163
  C        -3.46642385    -0.69271684     0.00000000
  C        -3.46642385     0.69271684     0.00000000
  C        -2.59033453    -0.72482546     2.29363163
  C        -1.17279223    -3.01845708     1.41754230
  C        -1.17279223    -3.01845708    -1.41754230
  C        -2.59033453    -0.72482546    -2.29363163
  C        -3.01845708    -1.41754230     1.17279223
  C        -3.01845708     1.41754230    -1.17279223
  C        -2.59033453     0.72482546     2.29363163
  C        -0.72482546    -2.29363163     2.59033453
  C         0.00000000    -3.46642385    -0.69271684
  C        -1.41754230    -1.17279223    -3.01845708
  C        -2.29363163    -2.59033453     0.72482546
  C        -2.29363163     2.59033453    -0.72482546
  C        -1.41754230     1.17279223     3.01845708
  C         0.72482546    -2.29363163     2.59033453
  C         1.17279223    -3.01845708    -1.41754230
  C        -0.69271684     0.00000000    -3.46642385
  C        -2.29363163    -2.59033453    -0.72482546
  C        -2.29363163     2.59033453     0.72482546
  C        -0.69271684     0.00000000     3.46642385
  C         1.17279223    -3.01845708     1.41754230
  C         0.72482546    -2.29363163    -2.59033453
  C        -1.41754230     1.17279223    -3.01845708
  C        -3.01845708    -1.41754230    -1.17279223
  C        -3.01845708     1.41754230     1.17279223
  C        -1.41754230    -1.17279223     3.01845708
  C         0.00000000    -3.46642385     0.69271684
  C        -0.72482546    -2.29363163    -2.59033453
  C        -2.59033453     0.72482546    -2.29363163
