5 
chloroform molec optimized by B3LYPp2p, SG=3m
  C         0.00000000     0.00000000     0.00000000
  H         0.00000000     0.00000000     1.08558600
  Cl        1.70496177     0.00000000    -0.53802000
  Cl       -0.85248088     1.47654020    -0.53802000
  Cl       -0.85248088    -1.47654020    -0.53802000
