30 
chrysene molec optimized by CAM-B3LYPp2p, SG=2/m
  C         0.43107095     0.55501358     0.00000000
  C         1.86747875     0.35661623     0.00000000
  C         2.79498560     1.42465560     0.00000000
  C         4.14997265     1.19711874     0.00000000
  C         4.65373516    -0.11543451     0.00000000
  C         3.78040447    -1.17286167     0.00000000
  C         2.38424605    -0.96196618     0.00000000
  C         1.47790360    -2.06202549     0.00000000
  C         0.13671808    -1.86734486     0.00000000
  C        -0.43107095    -0.55501358     0.00000000
  C        -1.86747875    -0.35661623     0.00000000
  C        -2.79498560    -1.42465560     0.00000000
  C        -4.14997265    -1.19711874     0.00000000
  C        -4.65373516     0.11543451     0.00000000
  C        -3.78040447     1.17286167     0.00000000
  C        -2.38424605     0.96196618     0.00000000
  C        -1.47790360     2.06202549     0.00000000
  C        -0.13671808     1.86734486     0.00000000
  H         2.44464061     2.44938327     0.00000000
  H         4.83591691     2.03854154     0.00000000
  H         5.72548539    -0.28717403     0.00000000
  H         4.15034172    -2.19449608     0.00000000
  H         1.88527089    -3.06910197     0.00000000
  H        -0.51397185    -2.73251383     0.00000000
  H        -2.44464061    -2.44938327     0.00000000
  H        -4.83591691    -2.03854154     0.00000000
  H        -5.72548539     0.28717403     0.00000000
  H        -4.15034172     2.19449608     0.00000000
  H        -1.88527089     3.06910197     0.00000000
  H         0.51397185     2.73251383     0.00000000
