16 
cyanoacrylateEt molec optimized by CAM-B3LYPp2p, SG=m
  C         0.00000000     0.00000000     0.00000000
  C        -0.70106311     1.25300538     0.00000000
  N        -1.28505244     2.25055456     0.00000000
  C        -0.64823914    -1.16613563     0.00000000
  C         1.49976930     0.00000000     0.00000000
  O         2.16341699    -1.00853549     0.00000000
  O         1.99131875     1.23678572     0.00000000
  C         3.42869983     1.34644067     0.00000000
  H         3.81458239     0.83008768     0.88288850
  H         3.81458239     0.83008768    -0.88288850
  C         3.76734188     2.81867968     0.00000000
  H         3.35975532     3.31148988    -0.88624650
  H         3.35975532     3.31148988     0.88624650
  H         4.85334457     2.94799590     0.00000000
  H        -0.07506312    -2.08667874     0.00000000
  H        -1.73053442    -1.21966070     0.00000000
