10 
cyanoacrylate molec optimized by CAM-B3LYPp2p, SG=m
  C         0.00000000     0.00000000     0.00000000
  C        -0.70383609     1.25111747     0.00000000
  N        -1.29011084     2.24715992     0.00000000
  C        -0.64444078    -1.16863562     0.00000000
  C         1.49608411     0.00000000     0.00000000
  O         2.16788867    -1.00089613     0.00000000
  O         2.00123441     1.23956496     0.00000000
  H         2.97094735     1.14975741     0.00000000
  H        -0.07008458    -2.08841898     0.00000000
  H        -1.72659780    -1.22423924     0.00000000
