23 
dibenzosilole molec optimized by CAM-B3LYPp2p, SG=mm2y
  C        -2.92787100    -1.37613961     0.00000000
  H        -3.54445700    -2.27001261     0.00000000
  C        -1.54296300    -1.49795061     0.00000000
  H        -1.09461100    -2.48652561     0.00000000
  C        -3.52695400    -0.12099361     0.00000000
  C         1.54296300    -1.49795061     0.00000000
  H         1.09461100    -2.48652561     0.00000000
  C        -0.74454500    -0.35673561     0.00000000
  C         0.74454500    -0.35673561     0.00000000
  H        -4.60911100    -0.03444361     0.00000000
  C         2.92787100    -1.37613961     0.00000000
  C        -2.73422000     1.02316339     0.00000000
  C        -1.34755500     0.91864839     0.00000000
  H         3.54445700    -2.27001261     0.00000000
  C         1.34755500     0.91864839     0.00000000
  C         3.52695400    -0.12099361     0.00000000
  Si        0.00000000     2.21515739     0.00000000
  C         2.73422000     1.02316339     0.00000000
  H        -3.20955300     2.00056839     0.00000000
  H         3.20955300     2.00056839     0.00000000
  H         0.00000000     3.09284239    -1.19954400
  H         0.00000000     3.09284239     1.19954400
  H         4.60911100    -0.03444361     0.00000000
