11 
dicyanoethyleneMe molec optimized by CAM-B3LYPp2p, SG=m
  C        -1.34488589     0.00000000     0.00000000
  C         0.00000000     0.00000000     0.00000000
  C         0.76032663     1.21992485     0.00000000
  C         0.74041561    -1.23135729     0.00000000
  N         1.35698302     2.20996561     0.00000000
  N         1.32584399    -2.22795399     0.00000000
  C        -2.21215918     1.20823302     0.00000000
  H        -1.63466921     2.13422049     0.00000000
  H        -2.86637086     1.19801281     0.87898900
  H        -2.86637086     1.19801281    -0.87898900
  H        -1.83786694    -0.96875526     0.00000000
