10 
DMSO molec optimized by B3LYPp2p, SG=mx
  S         0.00000000     0.00000000     0.00000000
  O         0.00000000     0.00000000     1.51136886
  C         1.36349400     1.10102185    -0.55299775
  H         2.30025000     0.62137970    -0.25912553
  H         1.33203100     1.21766657    -1.64073204
  H         1.27641400     2.07012974    -0.05269731
  C        -1.36349400     1.10102185    -0.55299775
  H        -2.30025000     0.62137970    -0.25912553
  H        -1.33203100     1.21766657    -1.64073204
  H        -1.27641400     2.07012974    -0.05269731
