14 
DPP molec optimized by CAM-B3LYPp2p, SG=2/m
  C         1.30614979     1.11880025     0.00000000
  N         2.11480717     0.00000000     0.00000000
  C         0.01251824     0.72124721     0.00000000
  C         1.36752966    -1.21001400     0.00000000
  C        -1.36752966     1.21001400     0.00000000
  O        -1.85802208     2.31718109     0.00000000
  O         1.85802208    -2.31718109     0.00000000
  C        -0.01251824    -0.72124721     0.00000000
  C        -1.30614979    -1.11880025     0.00000000
  N        -2.11480717     0.00000000     0.00000000
  H        -3.12346425     0.00030046     0.00000000
  H         3.12346425    -0.00030046     0.00000000
  H        -1.73519370    -2.11206233     0.00000000
  H         1.73519370     2.11206233     0.00000000
