34 
DPPPh molec optimized by CAM-B3LYPp2p, SG=2/m
  C         0.57377679     0.43102424     0.00000000
  C        -0.57377679    -0.43102424     0.00000000
  C         0.10187477     1.80948369     0.00000000
  C        -1.71248378     0.33428770     0.00000000
  C        -0.10187477    -1.80948369     0.00000000
  C         1.71248378    -0.33428770     0.00000000
  N        -1.29950504     1.65945671     0.00000000
  N         1.29950504    -1.65945671     0.00000000
  O         0.66436482     2.89098712     0.00000000
  O        -0.66436482    -2.89098712     0.00000000
  H        -1.90107836     2.46768312     0.00000000
  H         1.90107836    -2.46768312     0.00000000
  C        -3.12051379    -0.04512393     0.00000000
  C        -4.13887784     0.91645570     0.00000000
  C        -5.47126430     0.53311019     0.00000000
  C        -5.80813214    -0.81642714     0.00000000
  C        -4.80360135    -1.77873152     0.00000000
  C        -3.46846875    -1.40349845     0.00000000
  H        -3.90372225     1.97602355     0.00000000
  H        -6.24842740     1.29061591     0.00000000
  H        -6.85147571    -1.11603693     0.00000000
  H        -5.06022253    -2.83327160     0.00000000
  H        -2.68676768    -2.15772442     0.00000000
  C         3.12051379     0.04512393     0.00000000
  C         4.13887784    -0.91645570     0.00000000
  C         5.47126430    -0.53311019     0.00000000
  C         5.80813214     0.81642714     0.00000000
  C         4.80360135     1.77873152     0.00000000
  C         3.46846875     1.40349845     0.00000000
  H         3.90372225    -1.97602355     0.00000000
  H         6.24842740    -1.29061591     0.00000000
  H         6.85147571     1.11603693     0.00000000
  H         5.06022253     2.83327160     0.00000000
  H         2.68676768     2.15772442     0.00000000
