17 
DTC molec optimized by CAM-B3LYPp2p, SG=mm2y
  S         2.01323900    -2.07468782     0.00000000
  C         3.17511900    -0.78185182     0.00000000
  C         0.72340600    -0.93846782     0.00000000
  C         2.58945300     0.45028818     0.00000000
  C         1.17226400     0.36029718     0.00000000
  H         4.23026900    -1.01615582     0.00000000
  H         3.15478000     1.37495518     0.00000000
  C         0.00000000     1.31475518     0.00000000
  H         0.00000000     1.96824518     0.88069600
  H         0.00000000     1.96824518    -0.88069600
  S        -2.01323900    -2.07468782     0.00000000
  C        -3.17511900    -0.78185182     0.00000000
  C        -0.72340600    -0.93846782     0.00000000
  C        -2.58945300     0.45028818     0.00000000
  C        -1.17226400     0.36029718     0.00000000
  H        -4.23026900    -1.01615582     0.00000000
  H        -3.15478000     1.37495518     0.00000000
