9 
ethanol molec optimized by B3LYPp2p, SG=m
  H        -1.70496557    -0.69909995     0.00000000
  C        -1.01033727     0.14827426     0.00000000
  H        -1.20547896     0.76007766     0.88685900
  H        -1.20547896     0.76007766    -0.88685900
  C         0.42915917    -0.33902225     0.00000000
  H         0.61274977    -0.96699751     0.88754100
  H         0.61274977    -0.96699751    -0.88754100
  O         1.27661582     0.80647850     0.00000000
  H         2.19498623     0.49720914     0.00000000
