10 
ethylamine molec optimized by B3LYPp2p, SG=m
  C         1.53443931    -0.00000000     0.00000000
  C         0.00000000     0.00000000     0.00000000
  N        -0.64390588     1.31838828     0.00000000
  H         1.93646251    -1.02115642     0.00000000
  H         1.92790211     0.51422832     0.88632950
  H         1.92790211     0.51422832    -0.88632950
  H        -0.36866720    -0.54687279    -0.87711900
  H        -0.36866720    -0.54687279     0.87711900
  H        -0.32953306     1.84900435     0.81250850
  H        -0.32953306     1.84900435    -0.81250850
