71 
fluorene8 molec optimized by CAM-B3LYPp2p, SG=mm2y
  C         2.53260200     1.36561319     0.00000000
  C         3.44698100     0.31282419     0.00000000
  C         3.00531800    -1.00831181     0.00000000
  C         1.64426600    -1.29847581     0.00000000
  C         0.73474500    -0.24812381     0.00000000
  C         1.17644300     1.08193319     0.00000000
  H         2.88604500     2.39339319     0.00000000
  H         4.51191000     0.52441819     0.00000000
  H         3.72878000    -1.81787381     0.00000000
  H         1.30348600    -2.32986781     0.00000000
  C        -2.53260200     1.36561319     0.00000000
  C        -3.44698100     0.31282419     0.00000000
  C        -3.00531800    -1.00831181     0.00000000
  C        -1.64426600    -1.29847581     0.00000000
  C        -0.73474500    -0.24812381     0.00000000
  C        -1.17644300     1.08193319     0.00000000
  H        -2.88604500     2.39339319     0.00000000
  H        -4.51191000     0.52441819     0.00000000
  H        -3.72878000    -1.81787381     0.00000000
  H        -1.30348600    -2.32986781     0.00000000
  C         0.00000000     2.04894219     0.00000000
  C         0.00000000     2.95529819     1.25398200
  H        -0.87666900     3.61427919     1.19654500
  H         0.87666900     3.61427919     1.19654500
  C         0.00000000     2.23714219     2.60202400
  H         0.87763900     1.58339019     2.67066600
  H        -0.87763900     1.58339019     2.67066600
  C         0.00000000     3.20819619     3.78183000
  H        -0.87754000     3.86619519     3.71405000
  H         0.87754000     3.86619519     3.71405000
  C         0.00000000     2.50753319     5.13904300
  H         0.87722000     1.84976719     5.20713600
  H        -0.87722000     1.84976719     5.20713600
  C         0.00000000     3.47385119     6.32183500
  H        -0.87741500     4.13172719     6.25330800
  H         0.87741500     4.13172719     6.25330800
  C         0.00000000     2.77333419     7.67893200
  H         0.87732900     2.11542519     7.74857100
  H        -0.87732900     2.11542519     7.74857100
  C         0.00000000     3.73885919     8.86252000
  H        -0.87692300     4.39556119     8.79292700
  H         0.87692300     4.39556119     8.79292700
  C         0.00000000     3.02867219    10.21326500
  H         0.88337100     2.39007519    10.32308900
  H        -0.88337100     2.39007519    10.32308900
  H         0.00000000     3.74247819    11.04289900
  C         0.00000000     2.95529819    -1.25398200
  H         0.87666900     3.61427919    -1.19654500
  H        -0.87666900     3.61427919    -1.19654500
  C         0.00000000     2.23714219    -2.60202400
  H        -0.87763900     1.58339019    -2.67066600
  H         0.87763900     1.58339019    -2.67066600
  C         0.00000000     3.20819619    -3.78183000
  H         0.87754000     3.86619519    -3.71405000
  H        -0.87754000     3.86619519    -3.71405000
  C         0.00000000     2.50753319    -5.13904300
  H        -0.87722000     1.84976719    -5.20713600
  H         0.87722000     1.84976719    -5.20713600
  C         0.00000000     3.47385119    -6.32183500
  H         0.87741500     4.13172719    -6.25330800
  H        -0.87741500     4.13172719    -6.25330800
  C         0.00000000     2.77333419    -7.67893200
  H        -0.87732900     2.11542519    -7.74857100
  H         0.87732900     2.11542519    -7.74857100
  C         0.00000000     3.73885919    -8.86252000
  H         0.87692300     4.39556119    -8.79292700
  H        -0.87692300     4.39556119    -8.79292700
  C         0.00000000     3.02867219   -10.21326500
  H        -0.88337100     2.39007519   -10.32308900
  H         0.88337100     2.39007519   -10.32308900
  H         0.00000000     3.74247819   -11.04289900
