5 
HCOOH molec optimized by B3LYPp2p, SG=m
  C        -0.42181760    -0.00513282     0.00000000
  O         0.80842829    -0.55440558     0.00000000
  O        -0.65479900     1.17683585     0.00000000
  H        -1.17740586    -0.80403528     0.00000000
  H         1.44559417     0.18673783     0.00000000
