8 
HCOOMe molec optimized by B3LYPp2p, SG=m
  C        -1.31497032     0.03957795     0.00000000
  O        -0.19707694     0.78244019     0.00000000
  O        -1.36475877    -1.16585847     0.00000000
  H        -2.18852999     0.70919532     0.00000000
  C         1.03575293     0.03721283     0.00000000
  H         1.82880118     0.78480930     0.00000000
  H         1.10039096    -0.59368857     0.89027700
  H         1.10039096    -0.59368857    -0.89027700
