28 
HMTTF molec optimized by CAM-B3LYPp2p, SG=mmm
  S         1.63381800     1.50170600     0.00000000
  S         1.63381800    -1.50170600     0.00000000
  C         0.67033100     0.00000000     0.00000000
  C         3.17374100     0.66506000     0.00000000
  C         3.17374100    -0.66506000     0.00000000
  C         4.55040500     1.25896900     0.00000000
  C         4.55040500    -1.25896900     0.00000000
  C         5.46767900     0.00000000     0.00000000
  H         4.71902300     1.89115800     0.87923000
  H         4.71902300     1.89115800    -0.87923000
  H         4.71902300    -1.89115800     0.87923000
  H         4.71902300    -1.89115800    -0.87923000
  H         6.11887100     0.00000000     0.87678800
  H         6.11887100     0.00000000    -0.87678800
  S        -1.63381800    -1.50170600     0.00000000
  S        -1.63381800     1.50170600     0.00000000
  C        -0.67033100     0.00000000     0.00000000
  C        -3.17374100    -0.66506000     0.00000000
  C        -3.17374100     0.66506000     0.00000000
  C        -4.55040500    -1.25896900     0.00000000
  C        -4.55040500     1.25896900     0.00000000
  C        -5.46767900     0.00000000     0.00000000
  H        -4.71902300    -1.89115800    -0.87923000
  H        -4.71902300    -1.89115800     0.87923000
  H        -4.71902300     1.89115800    -0.87923000
  H        -4.71902300     1.89115800     0.87923000
  H        -6.11887100     0.00000000    -0.87678800
  H        -6.11887100     0.00000000     0.87678800
