22 
ICOC-F2 molec optimized by CAM-B3LYPp2p, SG=m
  C         2.62622944    -1.69762413     0.00000000
  C         1.41813633    -1.13100643     0.00000000
  C         0.18181526    -1.98327943     0.00000000
  C        -0.96037562    -1.04668449     0.00000000
  C        -2.30817052    -1.36995093     0.00000000
  C        -3.20654092    -0.32428566     0.00000000
  C        -2.75982649     1.00176200     0.00000000
  C        -1.41766711     1.32518583     0.00000000
  C        -0.49645472     0.27434146     0.00000000
  C         0.98287186     0.28179946     0.00000000
  C         1.78830093     1.37822127     0.00000000
  C         3.21634444     1.28500536     0.00000000
  N         4.37158959     1.22066787     0.00000000
  C         1.28560254     2.71841167     0.00000000
  N         0.88983587     3.80566082     0.00000000
  O         0.14072665    -3.19225613     0.00000000
  H        -2.64471986    -2.40046349     0.00000000
  F        -4.51756568    -0.54452541     0.00000000
  F        -3.67711671     1.96494972     0.00000000
  H        -1.14034788     2.37049402     0.00000000
  H         3.56088125    -1.15299001     0.00000000
  H         2.66645135    -2.78343337     0.00000000
