22 
ICOC-Cl1 molec optimized by CAM-B3LYPp2p, SG=m
  C         2.53278718    -1.79585880     0.00000000
  C         1.35302811    -1.17184270     0.00000000
  C         0.08191661    -1.97365116     0.00000000
  C        -1.02669981    -0.98772630     0.00000000
  C        -2.39937048    -1.19344960     0.00000000
  C        -3.24996689    -0.09282405     0.00000000
  C        -2.72091626     1.19342183     0.00000000
  C        -1.34850988     1.41756473     0.00000000
  C        -0.49706197     0.31573792     0.00000000
  C         0.98338786     0.25484995     0.00000000
  C         1.84115128     1.31145134     0.00000000
  C         3.26303307     1.14610816     0.00000000
  N         4.41394389     1.02695921     0.00000000
  C         1.41862693     2.67927976     0.00000000
  N         1.10157667     3.79205381     0.00000000
  O         0.01575294    -3.18002378     0.00000000
  Cl       -3.08072686    -2.78604051     0.00000000
  H        -4.32255898    -0.24958032     0.00000000
  H        -3.39685603     2.04199598     0.00000000
  H        -0.97400195     2.43123488     0.00000000
  H         3.49262625    -1.29736707     0.00000000
  H         2.51883831    -2.88229330     0.00000000
