32 
ICZb molec optimized by CAM-B3LYPp2p, SG=2/m
  C         5.07562893     1.12677441     0.00000000
  C         5.49064423    -0.21127872     0.00000000
  C         3.72662986     1.44628161     0.00000000
  C         2.78386921     0.41915871     0.00000000
  C         4.57403583    -1.25182564     0.00000000
  C         3.22057736    -0.92336789     0.00000000
  C         1.33475648     0.38959688     0.00000000
  N         2.11460693    -1.74845996     0.00000000
  C         0.95839314    -0.97980316     0.00000000
  C         0.36577626     1.38944991     0.00000000
  C        -0.95839314     0.97980316     0.00000000
  C        -1.33475648    -0.38959688     0.00000000
  C        -0.36577626    -1.38944991     0.00000000
  N        -2.11460693     1.74845996     0.00000000
  C        -3.22057736     0.92336789     0.00000000
  C        -2.78386921    -0.41915871     0.00000000
  C        -4.57403583     1.25182564     0.00000000
  C        -5.49064423     0.21127872     0.00000000
  C        -5.07562893    -1.12677441     0.00000000
  C        -3.72662986    -1.44628161     0.00000000
  H         4.90160994    -2.28696626     0.00000000
  H         6.55188464    -0.44045656     0.00000000
  H         5.81844343     1.91779940     0.00000000
  H         3.40777836     2.48465448     0.00000000
  H         0.63801154     2.44056753     0.00000000
  H        -0.63801154    -2.44056753     0.00000000
  H        -2.14031295     2.75433251     0.00000000
  H         2.14031295    -2.75433251     0.00000000
  H        -3.40777836    -2.48465448     0.00000000
  H        -5.81844343    -1.91779940     0.00000000
  H        -4.90160994     2.28696626     0.00000000
  H        -6.55188464     0.44045656     0.00000000
