28 
IDT molec optimized by CAM-B3LYPp2p, SG=2/m
  S         3.79445752    -2.06625399     0.00000000
  C         5.16367404    -0.99633798     0.00000000
  C         4.80166349     0.31867940     0.00000000
  C         3.38926811     0.47340945     0.00000000
  C         2.40245161     1.61060654     0.00000000
  C         1.07161607     0.88053618     0.00000000
  C        -0.20831682     1.40726938     0.00000000
  C        -1.27904994     0.51585337     0.00000000
  C        -2.71977453     0.72066606     0.00000000
  S        -3.79445752     2.06625399     0.00000000
  C        -5.16367404     0.99633798     0.00000000
  C        -4.80166349    -0.31867940     0.00000000
  C        -3.38926811    -0.47340945     0.00000000
  C        -2.40245161    -1.61060654     0.00000000
  C        -1.07161607    -0.88053618     0.00000000
  C         0.20831682    -1.40726938     0.00000000
  C         1.27904994    -0.51585337     0.00000000
  C         2.71977453    -0.72066606     0.00000000
  H         6.16263020    -1.40951062     0.00000000
  H         5.51849832     1.13151077     0.00000000
  H         2.50857031     2.25641066    -0.88013700
  H         2.50857031     2.25641066     0.88013700
  H        -0.37414374     2.48111616     0.00000000
  H        -6.16263020     1.40951062     0.00000000
  H        -5.51849832    -1.13151077     0.00000000
  H        -2.50857031    -2.25641066     0.88013700
  H        -2.50857031    -2.25641066    -0.88013700
  H         0.37414374    -2.48111616     0.00000000
