9 
imidazole molec optimized by CAM-B3LYPp2p, SG=m
  C         1.07291787     0.60657981     0.00000000
  C         0.70852753    -0.70946245     0.00000000
  N        -0.03526482     1.41843976     0.00000000
  C        -1.05829769     0.60344071     0.00000000
  N        -0.66684922    -0.70026043     0.00000000
  H         1.27808623    -1.62556283     0.00000000
  H         2.07150893     1.02014656     0.00000000
  H        -1.27068005    -1.50740038     0.00000000
  H        -2.09994878     0.89407926     0.00000000
