19 
methylacetamide2 molec-a optimized by B3LYPp2p, SG=m
  C        -2.44300726     0.49663266     0.00000000
  O        -2.58279695     1.71576815     0.00000000
  N        -1.21330542    -0.08801341     0.00000000
  H        -1.07367143    -1.09142634     0.00000000
  C        -3.62501650    -0.46174654     0.00000000
  H        -4.24189368    -0.26305923    -0.88172400
  H        -3.33382605    -1.51682007     0.00000000
  H        -4.24189368    -0.26305923     0.88172400
  C        -0.00740520     0.69944942     0.00000000
  H         0.02975705     1.35870294    -0.87894100
  H         0.02975705     1.35870294     0.87894100
  C         1.19622475    -0.24831938     0.00000000
  O         1.05717626    -1.46851957     0.00000000
  N         2.40544259     0.37279265     0.00000000
  H         2.42742864     1.38323715     0.00000000
  C         3.66731231    -0.34889764     0.00000000
  H         4.25834504    -0.11078992     0.89193900
  H         3.43302744    -1.41384467     0.00000000
  H         4.25834504    -0.11078992    -0.89193900
