25 
methylcarbazole molec optimized by CAM-B3LYPp2p, SG=mx
  C         3.03031500    -1.54805489     0.00219117
  C         1.68934600    -1.89977493    -0.00396960
  C         0.72369900    -0.89499406    -0.00878628
  C         3.41253600    -0.20083291     0.00572510
  C         2.47155100     0.81823402     0.00097380
  C         1.12515900     0.45819175    -0.01277904
  N         0.00000000     1.26643289    -0.03295141
  C        -1.12515900     0.45819175    -0.01277904
  C        -0.72369900    -0.89499406    -0.00878628
  C        -1.68934600    -1.89977493    -0.00396960
  C        -3.03031500    -1.54805489     0.00219117
  C        -3.41253600    -0.20083291     0.00572510
  C        -2.47155100     0.81823402     0.00097380
  C         0.00000000     2.70654147     0.00264001
  H         0.00000000     3.09737341     1.02744596
  H         0.88209800     3.08621786    -0.51751611
  H        -0.88209800     3.08621786    -0.51751611
  H         4.46786800     0.05398434     0.01636223
  H         2.78174600     1.85781217     0.01427696
  H         3.79194300    -2.32100524     0.00744789
  H         1.39402700    -2.94495199    -0.00249341
  H        -1.39402700    -2.94495199    -0.00249341
  H        -3.79194300    -2.32100524     0.00744789
  H        -4.46786800     0.05398434     0.01636223
  H        -2.78174600     1.85781217     0.01427696
