7 
methylamine molecule optimized by B3LYPp2p, SG=my
  C         0.00000000     0.00000000     0.00000000
  N         1.46511578     0.00000000     0.00000000
  H        -0.35826805    -0.88167150     0.54266051
  H        -0.35826805     0.88167150     0.54266051
  H        -0.48037507     0.00000000    -0.99458606
  H         1.80720525    -0.81232200    -0.51066726
  H         1.80720525     0.81232200    -0.51066726
