5 
methenamine molec optimized by CAM-B3LYPp2p, SG=m
  C        -0.38946872    -0.00929519     0.00000000
  N         0.74702617    -0.56516463     0.00000000
  H        -0.56582214     1.07324282     0.00000000
  H        -1.28232527    -0.63807145     0.00000000
  H         1.49058996     0.13928846     0.00000000
