8 
N2B2H4 molec optimized by CAM-B3LYPp2p, SG=mmm
  N         1.06706400     0.00000000     0.00000000
  B         0.00000000     0.97604100     0.00000000
  N        -1.06706400     0.00000000     0.00000000
  B         0.00000000    -0.97604100     0.00000000
  H         2.06867900     0.00000000     0.00000000
  H         0.00000000     2.16950200     0.00000000
  H        -2.06867900     0.00000000     0.00000000
  H         0.00000000    -2.16950200     0.00000000
