16 
nitroaniline molec optimized by CAM-B3LYPp2p, SG=my
  C         1.37807441     0.00000000     0.00031774
  C         0.69560631     1.21066300    -0.00021590
  C        -0.68498367     1.20952300     0.00001545
  C        -1.39931967     0.00000000     0.00008315
  C        -0.68498367    -1.20952300     0.00001545
  C         0.69560631    -1.21066300    -0.00021590
  H         1.25817054     2.13544000     0.00113784
  H        -1.22676643     2.15058400    -0.00444276
  H        -1.22676643    -2.15058400    -0.00444276
  H         1.25817054    -2.13544000     0.00113784
  N         2.83114003     0.00000000     0.00393725
  O         3.40383931     1.08236500     0.00554729
  O         3.40383931    -1.08236500     0.00554729
  N        -2.77511690     0.00000000    -0.04292531
  H        -3.24895423     0.84628300     0.23560310
  H        -3.24895423    -0.84628300     0.23560310
