16 
OPD molec optimized by CAM-B3LYPp2p, SG=2y
  C         1.38390589    -0.72852087     0.07135882
  C         0.70300911     0.48184312     0.02764348
  C        -0.70300911     0.48184312    -0.02764348
  C        -1.38390589    -0.72852087    -0.07135882
  C        -0.69224402    -1.93696688    -0.04278098
  C         0.69224402    -1.93696688     0.04278098
  H         2.47021271    -0.72196788     0.11959331
  N         1.34906664     1.73049513     0.08312060
  N        -1.34906664     1.73049513    -0.08312060
  H        -2.47021271    -0.72196788    -0.11959331
  H        -1.24180739    -2.87225288    -0.07495271
  H         1.24180739    -2.87225288     0.07495271
  H         2.35288589     1.66213112    -0.03343067
  H         0.96345627     2.38523913    -0.59138834
  H        -0.96345627     2.38523913     0.59138834
  H        -2.35288589     1.66213112     0.03343067
