29 
OPD2Fe molec_T optimized by CAM-B3LYPa3p, SG=mmm
  C        -5.04673800     0.70181800     0.00000000
  C        -5.04673800    -0.70181800     0.00000000
  C        -3.86658100     1.40408400     0.00000000
  C        -3.86658100    -1.40408400     0.00000000
  C        -2.64824500     0.71102800     0.00000000
  C        -2.64824500    -0.71102800     0.00000000
  N        -1.40079500     1.23265300     0.00000000
  N        -1.40079500    -1.23265300     0.00000000
  H        -5.98854000     1.23394300     0.00000000
  H        -5.98854000    -1.23394300     0.00000000
  H        -3.86612200     2.48731700     0.00000000
  H        -3.86612200    -2.48731700     0.00000000
  H        -1.35136700     2.24167900     0.00000000
  H        -1.35136700    -2.24167900     0.00000000
  C         5.04673800    -0.70181800     0.00000000
  C         5.04673800     0.70181800     0.00000000
  C         3.86658100    -1.40408400     0.00000000
  C         3.86658100     1.40408400     0.00000000
  C         2.64824500    -0.71102800     0.00000000
  C         2.64824500     0.71102800     0.00000000
  N         1.40079500    -1.23265300     0.00000000
  N         1.40079500     1.23265300     0.00000000
  H         5.98854000    -1.23394300     0.00000000
  H         5.98854000     1.23394300     0.00000000
  H         3.86612200    -2.48731700     0.00000000
  H         3.86612200     2.48731700     0.00000000
  H         1.35136700    -2.24167900     0.00000000
  H         1.35136700     2.24167900     0.00000000
  Fe        0.00000000     0.00000000     0.00000000
