8 
oxazole molec optimized by CAM-B3LYPp2p, SG=m
  C         0.76465974     0.68100432     0.00000000
  C         0.76577310    -0.66828607     0.00000000
  N        -0.54669395     1.13467093     0.00000000
  C        -1.25005253     0.05595559     0.00000000
  O        -0.53272724    -1.08634176     0.00000000
  H         1.52259073    -1.43512482     0.00000000
  H         1.60167625     1.36305889     0.00000000
  H        -2.32522609    -0.04493709     0.00000000
