32 
pentaceneN4 molec optimized by CAM-B3LYPp2p, SG=mmm
  C         0.00000000     1.41472400     0.00000000
  C         1.21043500     0.72261800     0.00000000
  N         2.37366600     1.42212200     0.00000000
  C         3.49171300     0.72667400     0.00000000
  C         4.75308100     1.41661100     0.00000000
  C         5.91367600     0.71907700     0.00000000
  C         5.91367600    -0.71907700     0.00000000
  C         4.75308100    -1.41661100     0.00000000
  C         3.49171300    -0.72667400     0.00000000
  N         2.37366600    -1.42212200     0.00000000
  C         1.21043500    -0.72261800     0.00000000
  C         0.00000000    -1.41472400     0.00000000
  C        -1.21043500    -0.72261800     0.00000000
  N        -2.37366600    -1.42212200     0.00000000
  C        -3.49171300    -0.72667400     0.00000000
  C        -4.75308100    -1.41661100     0.00000000
  C        -5.91367600    -0.71907700     0.00000000
  C        -5.91367600     0.71907700     0.00000000
  C        -4.75308100     1.41661100     0.00000000
  C        -3.49171300     0.72667400     0.00000000
  N        -2.37366600     1.42212200     0.00000000
  C        -1.21043500     0.72261800     0.00000000
  H         0.00000000     2.49807700     0.00000000
  H         4.72435500     2.50056400     0.00000000
  H         6.86442000     1.24266600     0.00000000
  H         6.86442000    -1.24266600     0.00000000
  H         4.72435500    -2.50056400     0.00000000
  H         0.00000000    -2.49807700     0.00000000
  H        -4.72435500    -2.50056400     0.00000000
  H        -6.86442000    -1.24266600     0.00000000
  H        -6.86442000     1.24266600     0.00000000
  H        -4.72435500     2.50056400     0.00000000
