36 
pentacene molec optimized by CAM-B3LYPp2p, SG=mmm, CO=[oa=[2]]
  C         0.00000000     1.40144900     0.00000000
  C         1.22034700     0.72283400     0.00000000
  C         2.46026100     1.40145000     0.00000000
  C         3.66126500     0.72353200     0.00000000
  C         4.92593800     1.40639400     0.00000000
  C         6.09284600     0.71716900     0.00000000
  C         6.09284600    -0.71716900     0.00000000
  C         4.92593800    -1.40639400     0.00000000
  C         3.66126500    -0.72353200     0.00000000
  C         2.46026100    -1.40145000     0.00000000
  C         1.22034700    -0.72283400     0.00000000
  C         0.00000000    -1.40144900     0.00000000
  C        -1.22034700    -0.72283400     0.00000000
  C        -2.46026100    -1.40145000     0.00000000
  C        -3.66126500    -0.72353200     0.00000000
  C        -4.92593800    -1.40639400     0.00000000
  C        -6.09284600    -0.71716900     0.00000000
  C        -6.09284600     0.71716900     0.00000000
  C        -4.92593800     1.40639400     0.00000000
  C        -3.66126500     0.72353200     0.00000000
  C        -2.46026100     1.40145000     0.00000000
  C        -1.22034700     0.72283400     0.00000000
  H         0.00000000     2.48851700     0.00000000
  H         2.45993500     2.48861800     0.00000000
  H         4.92207600     2.49279900     0.00000000
  H         7.04067700     1.24626200     0.00000000
  H         7.04067700    -1.24626200     0.00000000
  H         4.92207600    -2.49279900     0.00000000
  H         2.45993500    -2.48861800     0.00000000
  H         0.00000000    -2.48851700     0.00000000
  H        -2.45993500    -2.48861800     0.00000000
  H        -4.92207600    -2.49279900     0.00000000
  H        -7.04067700    -1.24626200     0.00000000
  H        -7.04067700     1.24626200     0.00000000
  H        -4.92207600     2.49279900     0.00000000
  H        -2.45993500     2.48861800     0.00000000
