22 
phenalenyl molec optimized by CAM-B3LYPp2p, SG=-62m
  C        -0.00000000     0.00000000     0.00000000
  C         1.42473783     0.00000000     0.00000000
  C        -0.71236891     1.23385915     0.00000000
  C        -0.71236891    -1.23385915     0.00000000
  C         2.10717495     1.23800807     0.00000000
  C         0.01855896     2.44387108     0.00000000
  C        -2.12573392     1.20586300     0.00000000
  C        -2.12573392    -1.20586300     0.00000000
  C         0.01855896    -2.44387108     0.00000000
  C         2.10717495    -1.23800807     0.00000000
  C         1.40613708     2.43550086     0.00000000
  C        -2.81227416     0.00000000     0.00000000
  C         1.40613708    -2.43550086     0.00000000
  H         3.19317876    -1.23881004     0.00000000
  H         3.19317876     1.23881004     0.00000000
  H        -0.52374841     3.38477894     0.00000000
  H        -2.66943034     2.14596890     0.00000000
  H        -2.66943034    -2.14596890     0.00000000
  H        -0.52374841    -3.38477894     0.00000000
  H         1.94899659     3.37576113     0.00000000
  H        -3.89799319     0.00000000     0.00000000
  H         1.94899659    -3.37576113     0.00000000
