30 
phenazineO4NH24 molec optimized by CAM-B3LYPp2p, SG=222, CO=[oa=[3]]
  N         0.00000000     1.40046800     0.00000000
  C         1.12757000     0.70008900     0.00506900
  C         2.42400800     1.46019100     0.04621800
  C         3.67015800     0.67960000     0.02831000
  C         3.67015800    -0.67960000    -0.02831000
  C         2.42400800    -1.46019100    -0.04621800
  C         1.12757000    -0.70008900    -0.00506900
  N         0.00000000    -1.40046800     0.00000000
  C        -1.12757000    -0.70008900     0.00506900
  C        -2.42400800    -1.46019100     0.04621800
  C        -3.67015800    -0.67960000     0.02831000
  C        -3.67015800     0.67960000    -0.02831000
  C        -2.42400800     1.46019100    -0.04621800
  C        -1.12757000     0.70008900    -0.00506900
  O         2.45084400     2.67418100     0.11197300
  O         2.45084400    -2.67418100    -0.11197300
  O        -2.45084400    -2.67418100     0.11197300
  O        -2.45084400     2.67418100    -0.11197300
  N         4.84227500     1.40758300     0.04051200
  N         4.84227500    -1.40758300    -0.04051200
  N        -4.84227500    -1.40758300     0.04051200
  N        -4.84227500     1.40758300    -0.04051200
  H         4.67849000     2.39371900     0.21235100
  H         5.58179600     1.01441300     0.61136100
  H         4.67849000    -2.39371900    -0.21235100
  H         5.58179600    -1.01441300    -0.61136100
  H        -4.67849000    -2.39371900     0.21235100
  H        -5.58179600    -1.01441300     0.61136100
  H        -4.67849000     2.39371900    -0.21235100
  H        -5.58179600     1.01441300    -0.61136100
