36 
picene molec optimized by CAM-B3LYPp2p, SG=mm2y
  C         5.70221400     0.35712417     0.00000000
  C         4.98395100    -0.81232883     0.00000000
  C         3.57318200    -0.79679083     0.00000000
  C         2.82543500    -2.01272783     0.00000000
  C         1.47167100    -2.00859383     0.00000000
  C         0.72138900    -0.78684283     0.00000000
  C        -0.72138900    -0.78684283     0.00000000
  C        -1.47167100    -2.00859383     0.00000000
  C        -2.82543500    -2.01272783     0.00000000
  C        -3.57318200    -0.79679083     0.00000000
  C        -4.98395100    -0.81232883     0.00000000
  C        -5.70221400     0.35712417     0.00000000
  C        -5.02145600     1.58611517     0.00000000
  C        -3.64705800     1.62251717     0.00000000
  C        -2.87944200     0.43611017     0.00000000
  C        -1.42732600     0.43186517     0.00000000
  C        -0.68051100     1.63827917     0.00000000
  C         0.68051100     1.63827917     0.00000000
  C         1.42732600     0.43186517     0.00000000
  C         2.87944200     0.43611017     0.00000000
  C         3.64705800     1.62251717     0.00000000
  C         5.02145600     1.58611517     0.00000000
  H         6.78742500     0.33575317     0.00000000
  H         5.49261600    -1.77245283     0.00000000
  H         3.36882200    -2.95343083     0.00000000
  H         0.95410400    -2.95863983     0.00000000
  H        -0.95410400    -2.95863983     0.00000000
  H        -3.36882200    -2.95343083     0.00000000
  H        -5.49261600    -1.77245283     0.00000000
  H        -6.78742500     0.33575317     0.00000000
  H        -5.58345700     2.51489617     0.00000000
  H        -3.15625000     2.58804617     0.00000000
  H        -1.19473800     2.59110117     0.00000000
  H         1.19473800     2.59110117     0.00000000
  H         3.15625000     2.58804617     0.00000000
  H         5.58345700     2.51489617     0.00000000
