37 
porphineMg molec optimized by CAM-B3LYPp2p, SG=4/mmm
  N         0.00000000     2.05416650     0.00000000
  C         1.09948400     2.86390600     0.00000000
  C         0.67883300     4.24431850     0.00000000
  C        -0.67883300     4.24431850     0.00000000
  C        -1.09948400     2.86390600     0.00000000
  H         1.34584100     5.09647250     0.00000000
  H        -1.34584100     5.09647250     0.00000000
  C        -2.42134050     2.42134050     0.00000000
  H        -3.18902300     3.18902300     0.00000000
  N        -2.05416650     0.00000000     0.00000000
  C        -2.86390600     1.09948400     0.00000000
  C        -4.24431850     0.67883300     0.00000000
  C        -4.24431850    -0.67883300     0.00000000
  C        -2.86390600    -1.09948400     0.00000000
  H        -5.09647250     1.34584100     0.00000000
  H        -5.09647250    -1.34584100     0.00000000
  C        -2.42134050    -2.42134050     0.00000000
  H        -3.18902300    -3.18902300     0.00000000
  N         0.00000000    -2.05416650     0.00000000
  C        -1.09948400    -2.86390600     0.00000000
  C        -0.67883300    -4.24431850     0.00000000
  C         0.67883300    -4.24431850     0.00000000
  C         1.09948400    -2.86390600     0.00000000
  H        -1.34584100    -5.09647250     0.00000000
  H         1.34584100    -5.09647250     0.00000000
  C         2.42134050    -2.42134050     0.00000000
  H         3.18902300    -3.18902300     0.00000000
  N         2.05416650     0.00000000     0.00000000
  C         2.86390600    -1.09948400     0.00000000
  C         4.24431850    -0.67883300     0.00000000
  C         4.24431850     0.67883300     0.00000000
  C         2.86390600     1.09948400     0.00000000
  H         5.09647250    -1.34584100     0.00000000
  H         5.09647250     1.34584100     0.00000000
  C         2.42134050     2.42134050     0.00000000
  H         3.18902300     3.18902300     0.00000000
  Mg        0.00000000     0.00000000     0.00000000
