7 
propadiene molec optimized by B3LYPp2p, SG=-42mx, CO=[13,ca=[1],pa=[2],sa=[3],det=1]
  C         0.00000000     0.00000000     0.00000000
  C         1.30677498     0.00000000    -0.00000000
  H         1.87638245     0.00000000     0.92722702
  H         1.87638245    -0.00000000    -0.92722702
  C        -1.30677498     0.00000000     0.00000000
  H        -1.87638245     0.92722702     0.00000000
  H        -1.87638245    -0.92722702     0.00000000
