10 
pyrazine molec optimized by CAM-B3LYPp2p, SG=mmm
  N         0.00000000     1.40181900     0.00000000
  C         1.12858600     0.69557800     0.00000000
  C         1.12858600    -0.69557800     0.00000000
  N         0.00000000    -1.40181900     0.00000000
  C        -1.12858600    -0.69557800     0.00000000
  C        -1.12858600     0.69557800     0.00000000
  H         2.06200925     1.25282575     0.00000000
  H         2.06200925    -1.25282575     0.00000000
  H        -2.06200925    -1.25282575     0.00000000
  H        -2.06200925     1.25282575     0.00000000
