11 
pyridineF molec optimized by CAM-B3LYPp2p, SG=m
  N        -0.14491653    -1.60485398     0.00000000
  C         1.04599867    -1.01269316     0.00000000
  C         1.18226896     0.36712950     0.00000000
  C         0.06818397     1.18455769     0.00000000
  C        -1.17329270     0.56233960     0.00000000
  C        -1.22777078    -0.82743434     0.00000000
  H         1.93116072    -1.64359280     0.00000000
  F         2.40954166     0.90534495     0.00000000
  H         0.18172992     2.26301535     0.00000000
  H        -2.08699278     1.14682189     0.00000000
  H        -2.18591111    -1.34063472     0.00000000
