14 
pyridazineN2C2 molec optimized by CAM-B3LYPp2p, SG=mm2y
  H        -2.41719650    -1.55332057     0.00000000
  C         1.33167500    -1.50002507     0.00000000
  N         0.68121050    -2.63113407     0.00000000
  C         0.69901950    -0.22767607     0.00000000
  C        -0.69901950    -0.22767607     0.00000000
  C        -1.33167500    -1.50002507     0.00000000
  N         1.42055650     0.92239293     0.00000000
  N        -1.42055650     0.92239293     0.00000000
  N        -0.68121050    -2.63113407     0.00000000
  C         0.71167550     2.02247193     0.00000000
  C        -0.71167550     2.02247193     0.00000000
  H         1.25030450     2.96729093     0.00000000
  H        -1.25030450     2.96729093     0.00000000
  H         2.41719650    -1.55332057     0.00000000
