10 
pyrrole molec optimized by CAM-B3LYPp2p, SG=mm2y
  N         0.00000000     1.13985270     0.00000000
  C         1.12022600     0.35117870     0.00000000
  C        -1.12022600     0.35117870     0.00000000
  C         0.71094900    -0.95769130     0.00000000
  C        -0.71094900    -0.95769130     0.00000000
  H         0.00000000     2.14664970     0.00000000
  H         2.10865000     0.78603270     0.00000000
  H        -2.10865000     0.78603270     0.00000000
  H         1.35890100    -1.82277130     0.00000000
  H        -1.35890100    -1.82277130     0.00000000
