16 
quinodimethane molec optimized by CAM-B3LYPp2p, SG=mmm
  C         0.66991100     1.24084700     0.00000000
  C        -0.66991100     1.24084700     0.00000000
  C        -1.44455900     0.00000000     0.00000000
  C        -0.66991100    -1.24084700     0.00000000
  C         0.66991100    -1.24084700     0.00000000
  C         1.44455900     0.00000000     0.00000000
  H         1.22147900     2.17689900     0.00000000
  H        -1.22147900     2.17689900     0.00000000
  C        -2.78716400     0.00000000     0.00000000
  H        -1.22147900    -2.17689900     0.00000000
  H         1.22147900    -2.17689900     0.00000000
  C         2.78716400     0.00000000     0.00000000
  H        -3.35462000     0.92516900     0.00000000
  H        -3.35462000    -0.92516900     0.00000000
  H         3.35462000     0.92516900     0.00000000
  H         3.35462000    -0.92516900     0.00000000
