9 
selenophene molec optimized by CAM-B3LYPp2p, SG=mm2y
  Se        0.00000000     1.88888911     0.00000000
  C         1.28214000     0.55060811     0.00000000
  C        -1.28214000     0.55060811     0.00000000
  C         0.71564300    -0.68233089     0.00000000
  C        -0.71564300    -0.68233089     0.00000000
  H         2.33763500     0.78276511     0.00000000
  H        -2.33763500     0.78276511     0.00000000
  H         1.30084700    -1.59548689     0.00000000
  H        -1.30084700    -1.59548689     0.00000000
