26 
stilbene molec optimized by CAM-B3LYPp2p, SG=2/m
  C         0.49216401     0.45363242     0.00000000
  C        -0.49216401    -0.45363242     0.00000000
  C        -1.93622352    -0.18822337     0.00000000
  C        -2.48491343     1.10104054     0.00000000
  C        -3.85824872     1.29008917     0.00000000
  C        -4.72113484     0.19720756     0.00000000
  C        -4.19383560    -1.08805954     0.00000000
  C        -2.81777692    -1.27493036     0.00000000
  H        -0.23411524    -1.51054638     0.00000000
  H        -1.83252170     1.96800423     0.00000000
  H        -4.26015748     2.29882475     0.00000000
  H        -5.79594911     0.34907794     0.00000000
  H        -4.85467842    -1.94953764     0.00000000
  H        -2.41180002    -2.28301939     0.00000000
  C         1.93622352     0.18822337     0.00000000
  C         2.48491343    -1.10104054     0.00000000
  C         3.85824872    -1.29008917     0.00000000
  C         4.72113484    -0.19720756     0.00000000
  C         4.19383560     1.08805954     0.00000000
  C         2.81777692     1.27493036     0.00000000
  H         0.23411524     1.51054638     0.00000000
  H         1.83252170    -1.96800423     0.00000000
  H         4.26015748    -2.29882475     0.00000000
  H         5.79594911    -0.34907794     0.00000000
  H         4.85467842     1.94953764     0.00000000
  H         2.41180002     2.28301939     0.00000000
