16 
styrene molec optimized by CAM-B3LYPp2p, SG=m
  C         2.85645965     0.26585333     0.00000000
  C         1.82919953    -0.58135211     0.00000000
  C         0.39467016    -0.24680515     0.00000000
  C        -0.08189409     1.06926941     0.00000000
  C        -1.44328436     1.33212308     0.00000000
  C        -2.36235124     0.28595517     0.00000000
  C        -1.90514950    -1.02567124     0.00000000
  C        -0.54030011    -1.28561424     0.00000000
  H         2.04293818    -1.64909260     0.00000000
  H         0.61928190     1.89751824     0.00000000
  H        -1.79157714     2.36059582     0.00000000
  H        -3.42764373     0.49476707     0.00000000
  H        -2.61151277    -1.85023043     0.00000000
  H        -0.18780520    -2.31366243     0.00000000
  H         3.87830574    -0.09788019     0.00000000
  H         2.73066297     1.34422627     0.00000000
