18 
TacT molec optimized by CAM-B3LYPp2p, SG=2/m
  C         4.26562568     0.50786455     0.00000000
  C         4.37788307    -0.84973519     0.00000000
  C         2.91477047     0.94741523     0.00000000
  C         2.01446298    -0.08768351     0.00000000
  S         2.83957122    -1.62306205     0.00000000
  C         0.60466528    -0.01824651     0.00000000
  C        -0.60466528     0.01824651     0.00000000
  C        -2.01446298     0.08768351     0.00000000
  S        -2.83957122     1.62306205     0.00000000
  C        -4.37788307     0.84973519     0.00000000
  C        -2.91477047    -0.94741523     0.00000000
  C        -4.26562568    -0.50786455     0.00000000
  H         5.28200309    -1.44234632     0.00000000
  H         5.11679668     1.17799409     0.00000000
  H         2.60818991     1.98588807     0.00000000
  H        -2.60818991    -1.98588807     0.00000000
  H        -5.11679668    -1.17799409     0.00000000
  H        -5.28200309     1.44234632     0.00000000
