12 
thienothiophene molec optimized by CAM-B3LYPp2p, SG=2/m
  S        -1.10008833    -1.76783990     0.00000000
  C        -2.23946113    -0.45225000     0.00000000
  C        -1.64848042     0.77091012     0.00000000
  C        -0.22727112     0.65213257     0.00000000
  S         1.10008833     1.76783990     0.00000000
  C         2.23946113     0.45225000     0.00000000
  C         1.64848042    -0.77091012     0.00000000
  C         0.22727112    -0.65213257     0.00000000
  H        -3.29876754    -0.66857062     0.00000000
  H         3.29876754     0.66857062     0.00000000
  H        -2.19563952     1.70519533     0.00000000
  H         2.19563952    -1.70519533     0.00000000
