15 
thiopheneO2C2H4 molec optimized by CAM-B3LYPp2p, SG=2y
  S         0.00000000     3.10126960     0.00000000
  C         1.23761922     1.90294460     0.13866458
  C        -1.23761922     1.90294460    -0.13866458
  C         0.71339578     0.65210560     0.07808066
  C        -0.71339578     0.65210560    -0.07808066
  H         2.27624995     2.17346360     0.25371914
  H        -2.27624995     2.17346360    -0.25371914
  O         1.43341392    -0.50159440     0.17263159
  O        -1.43341392    -0.50159440    -0.17263159
  C         0.70252667    -1.63398640    -0.28551833
  C        -0.70252667    -1.63398640     0.28551833
  H         0.65839489    -1.63029840    -1.38224333
  H        -0.65839489    -1.63029840     1.38224333
  H         1.25797421    -2.51326940     0.04638339
  H        -1.25797421    -2.51326940    -0.04638339
