9 
thiopheneO2-- molec optimized by CAM-B3LYPp2p, SG=mm2y
  S         0.00000000     1.87914800     0.00000000
  C         1.25722400     0.61309700     0.00000000
  C        -1.25722400     0.61309700     0.00000000
  C         0.77284900    -0.69202200     0.00000000
  C        -0.77284900    -0.69202200     0.00000000
  H         2.30322400     0.90763000     0.00000000
  H        -2.30322400     0.90763000     0.00000000
  O         1.45794400    -1.76827900     0.00000000
  O        -1.45794400    -1.76827900     0.00000000
