10 
thiopheneO2Li molec optimized by CAM-B3LYPp2p, SG=mm2y
  S         0.00000000     2.13441440     0.00000000
  C         1.25347500     0.90503440     0.00000000
  C        -1.25347500     0.90503440     0.00000000
  C         0.74646200    -0.36371560     0.00000000
  C        -0.74646200    -0.36371560     0.00000000
  H         2.29714600     1.18886240     0.00000000
  H        -2.29714600     1.18886240     0.00000000
  O         1.40327300    -1.51252660     0.00000000
  O        -1.40327300    -1.51252660     0.00000000
  Li        0.00000000    -2.56972360     0.00000000
