27 
thiopheneC6H13 molec optimized by CAM-B3LYPp2p, SG=m
  S        -0.00546804     1.46730449     0.00000000
  C         1.22764038     0.26376346     0.00000000
  C        -1.23653255     0.26376346     0.00000000
  C         0.72347934    -1.00457754     0.00000000
  C        -0.70911912    -0.99025387     0.00000000
  H         2.26894182     0.55700077     0.00000000
  H        -2.27972176     0.54664208     0.00000000
  H        -1.31962966    -1.88476148     0.00000000
  C         1.58700642    -2.24613637     0.00000000
  C         0.82174649    -3.56869062     0.00000000
  H         2.24968821    -2.22257970     0.87455300
  H         2.24968821    -2.22257970    -0.87455300
  C         1.74784027    -4.78287272     0.00000000
  H         0.16524601    -3.61448194    -0.87851700
  H         0.16524601    -3.61448194     0.87851700
  C         0.99981688    -6.11426780     0.00000000
  H         2.40726340    -4.73688431     0.87755000
  H         2.40726340    -4.73688431    -0.87755000
  C         1.92440975    -7.33010409     0.00000000
  H         0.34025909    -6.16110924    -0.87752900
  H         0.34025909    -6.16110924     0.87752900
  C         1.16786999    -8.65537600     0.00000000
  H         2.58292451    -7.28301421     0.87698100
  H         2.58292451    -7.28301421    -0.87698100
  H         1.85292675    -9.50876826     0.00000000
  H         0.52607107    -8.74330744    -0.88345800
  H         0.52607107    -8.74330744     0.88345800
