11 
thiophenedioxide molec optimized by CAM-B3LYPp2p, SG=mm2y
  S         0.00000000     1.32314636     0.00000000
  C         1.28590800     0.08361036     0.00000000
  C        -1.28590800     0.08361036     0.00000000
  C         0.74218400    -1.12956264     0.00000000
  C        -0.74218400    -1.12956264     0.00000000
  H         2.32590600     0.37900636     0.00000000
  H        -2.32590600     0.37900636     0.00000000
  H         1.31128900    -2.05189564     0.00000000
  H        -1.31128900    -2.05189564     0.00000000
  O         0.00000000     2.05726836     1.26119800
  O         0.00000000     2.05726836    -1.26119800
