15 
toluene molec optimized by B3LYPp2p, SG=my
  C         0.72069308     0.00000000    -0.01418393
  C         0.00106249     1.20237900    -0.01113610
  C        -1.39439545     1.20541500     0.00137315
  C        -2.09823203     0.00000000     0.00836756
  C        -1.39439545    -1.20541500     0.00137315
  C         0.00106249    -1.20237900    -0.01113610
  C         2.23222190     0.00000000     0.00445661
  H         0.54114151     2.14691100    -0.02047070
  H        -1.93174579     2.15045300     0.00117790
  H        -3.18498095     0.00000000     0.01480934
  H        -1.93174579    -2.15045300     0.00117790
  H         0.54114151    -2.14691100    -0.02047070
  H         2.61829948     0.00000000     1.03281017
  H         2.63993650    -0.88600600    -0.49407413
  H         2.63993650     0.88600600    -0.49407413
