26 
TTF-Me molec optimized by CAM-B3LYPp2p, SG=mmm
  S         1.64170500     1.48052700     0.00000000
  S         1.64170500    -1.48052700     0.00000000
  C         0.67018900     0.00000000     0.00000000
  C         3.21631600     0.66839300     0.00000000
  C         3.21631600    -0.66839300     0.00000000
  C         4.39948000     1.58895600     0.00000000
  C         4.39948000    -1.58895600     0.00000000
  H         4.39089600     2.23695800    -0.88300400
  H         4.39089600     2.23695800     0.88300400
  H         5.33820700     1.03361800     0.00000000
  H         4.39089600    -2.23695800    -0.88300400
  H         4.39089600    -2.23695800     0.88300400
  H         5.33820700    -1.03361800     0.00000000
  S        -1.64170500    -1.48052700     0.00000000
  S        -1.64170500     1.48052700     0.00000000
  C        -0.67018900     0.00000000     0.00000000
  C        -3.21631600    -0.66839300     0.00000000
  C        -3.21631600     0.66839300     0.00000000
  C        -4.39948000    -1.58895600     0.00000000
  C        -4.39948000     1.58895600     0.00000000
  H        -4.39089600    -2.23695800     0.88300400
  H        -4.39089600    -2.23695800    -0.88300400
  H        -5.33820700    -1.03361800     0.00000000
  H        -4.39089600     2.23695800     0.88300400
  H        -4.39089600     2.23695800    -0.88300400
  H        -5.33820700     1.03361800     0.00000000
