34 
TTPc molec optimized by CAM-B3LYPp2p, SG=mm2x, CO=[oa=[3]]
  N        -0.28332682     1.40506700     0.00000000
  N        -0.28332682    -1.40506700     0.00000000
  C         0.85505618     0.71538900     0.00000000
  C         0.85505618    -0.71538900     0.00000000
  C        -1.42403782     0.71522800     0.00000000
  C        -1.42403782    -0.71522800     0.00000000
  C         2.11711018     1.39127500     0.00000000
  C         2.11711018    -1.39127500     0.00000000
  C        -2.68025782     1.41837900     0.00000000
  C        -2.68025782    -1.41837900     0.00000000
  C         3.32944618     0.71977700     0.00000000
  C         3.32944618    -0.71977700     0.00000000
  C        -3.87358482     0.71113200     0.00000000
  C        -3.87358482    -0.71113200     0.00000000
  C         4.44015818     1.62209800     0.00000000
  C         4.44015818    -1.62209800     0.00000000
  C        -2.88287782     2.83474000     0.00000000
  C        -2.88287782    -2.83474000     0.00000000
  C         4.04775418     2.92149800     0.00000000
  C         4.04775418    -2.92149800     0.00000000
  C        -4.19527682     3.16719800     0.00000000
  C        -4.19527682    -3.16719800     0.00000000
  S         2.32753618     3.11018800     0.00000000
  S         2.32753618    -3.11018800     0.00000000
  S        -5.23948282     1.77794000     0.00000000
  S        -5.23948282    -1.77794000     0.00000000
  H         5.47714218     1.30897200     0.00000000
  H         5.47714218    -1.30897200     0.00000000
  H        -2.06748882     3.54594300     0.00000000
  H        -2.06748882    -3.54594300     0.00000000
  H         4.68198718     3.79739700     0.00000000
  H         4.68198718    -3.79739700     0.00000000
  H        -4.62985682     4.15700800     0.00000000
  H        -4.62985682    -4.15700800     0.00000000
